
 ANSYS Mechanical Enterprise                       


 *------------------------------------------------------------------*
 |                                                                  |
 |   W E L C O M E   T O   T H E   A N S Y S (R)  P R O G R A M     |
 |                                                                  |
 *------------------------------------------------------------------*




 ***************************************************************
 *            ANSYS Release 19.0     LEGAL NOTICES             *
 ***************************************************************
 *                                                             *
 * Copyright 1971-2017 ANSYS, Inc.  All rights reserved.       *
 * Unauthorized use, distribution or duplication is            *
 * prohibited.                                                 *
 *                                                             *
 * Ansys is a registered trademark of ANSYS, Inc. or its       *
 * subsidiaries in the United States or other countries.       *
 * See the ANSYS, Inc. online documentation or the ANSYS, Inc. *
 * documentation CD or online help for the complete Legal      *
 * Notice.                                                     *
 *                                                             *
 ***************************************************************
 *                                                             *
 * THIS ANSYS SOFTWARE PRODUCT AND PROGRAM DOCUMENTATION       *
 * INCLUDE TRADE SECRETS AND CONFIDENTIAL AND PROPRIETARY      *
 * PRODUCTS OF ANSYS, INC., ITS SUBSIDIARIES, OR LICENSORS.    *
 * The software products and documentation are furnished by    *
 * ANSYS, Inc. or its subsidiaries under a software license    *
 * agreement that contains provisions concerning               *
 * non-disclosure, copying, length and nature of use,          *
 * compliance with exporting laws, warranties, disclaimers,    *
 * limitations of liability, and remedies, and other           *
 * provisions.  The software products and documentation may be *
 * used, disclosed, transferred, or copied only in accordance  *
 * with the terms and conditions of that software license      *
 * agreement.                                                  *
 *                                                             *
 * ANSYS, Inc. is a UL registered                              *
 * ISO 9001:2008 company.                                      *
 *                                                             *
 ***************************************************************
 *                                                             *
 * This product is subject to U.S. laws governing export and   *
 * re-export.                                                  *
 *                                                             *
 * For U.S. Government users, except as specifically granted   *
 * by the ANSYS, Inc. software license agreement, the use,     *
 * duplication, or disclosure by the United States Government  *
 * is subject to restrictions stated in the ANSYS, Inc.        *
 * software license agreement and FAR 12.212 (for non-DOD      *
 * licenses).                                                  *
 *                                                             *
 ***************************************************************

 Release 19.0
     
 Point Releases and Patches installed:   
     
 ANSYS, Inc. Products Release 19.0   
 SpaceClaim Release 19.0 
 AIM Release 19.0
 Autodyn Release 19.0
 LS-DYNA Release 19.0
 CFX (includes CFD-Post) Release 19.0
 Chemkin Release 19.0
 EnSight Release 19.0
 FENSAP-ICE Release 19.0 
 Fluent (includes CFD-Post) Release 19.0 
 Forte Release 19.0  
 Polyflow (includes CFD-Post) Release 19.0   
 TurboGrid Release 19.0  
 ICEM CFD Release 19.0   
 Aqwa Release 19.0   
 Mechanical Products Release 19.0
 Icepak (includes CFD-Post) Release 19.0 
 ACIS Geometry Interface Release 19.0
 AutoCAD Geometry Interface Release 19.0 
 Catia, Version 4 Geometry Interface Release 19.0
 Catia, Version 6 Geometry Interface Release 19.0
 Creo Elements/Direct Modeling Geometry Interface Release 19.0   
 Creo Parametric Geometry Interface Release 19.0 
 Inventor Geometry Interface Release 19.0
 JTOpen Geometry Interface Release 19.0  
 NX Geometry Interface Release 19.0  
 Parasolid Geometry Interface  Release 19.0  
 Solid Edge Geometry Interface Release 19.0  
 SOLIDWORKS Geometry Interface Release 19.0  
 ANSYS, Inc. License Manager Release 19.0


          *****  ANSYS COMMAND LINE ARGUMENTS  *****
  BATCH MODE REQUESTED (-b)    = NOLIST
  INPUT FILE COPY MODE (-c)    = COPY
  DISTRIBUTED MEMORY PARALLEL REQUESTED
       2 PARALLEL PROCESSES REQUESTED WITH SINGLE THREAD PER PROCESS
    TOTAL OF     2 CORES REQUESTED
  MPI OPTION                   = INTELMPI
  INPUT FILE NAME              = D:\Data\Research\Publications\SMO\ANSYS files\MMM2\_ProjectScratch\Scr8FF4\dummy.dat
  OUTPUT FILE NAME             = D:\Data\Research\Publications\SMO\ANSYS files\MMM2\_ProjectScratch\Scr8FF4\solve.out
  START-UP FILE MODE           = NOREAD
  STOP FILE MODE               = NOREAD
  CONNECTION TO COUPLING SERVER REQUESTED
    SYSTEM NAME                = Solution 1
    HOST NAME                  = DESKTOP-2A0V35D
    SERVER PORT REQUESTED      = 55574       

 RELEASE= Release 19.0         BUILD= 19.0      UP20171214   VERSION=WINDOWS x64 
 CURRENT JOBNAME=file0  12:42:27  APR 01, 2019 CP=      0.203


MAPDL is connecting to the system coupling service on DESKTOP-2A0V35D through port  55574 ...
   ... connected

 PARAMETER _DS_PROGRESS =     999.0000000    

 /INPUT FILE= ds.dat  LINE=       0



 *** NOTE ***                            CP =       0.344   TIME= 12:42:27
 The /CONFIG,NOELDB command is not valid in a Distributed ANSYS          
 solution.  Command is ignored.                                          

 *GET  _WALLSTRT  FROM  ACTI  ITEM=TIME WALL  VALUE=  12.7075000    

 TITLE= 
 MMM01--Transient (F5)                                                         


 SET PARAMETER DIMENSIONS ON  _WB_PROJECTSCRATCH_DIR
  TYPE=STRI  DIMENSIONS=      248        1        1

 PARAMETER _WB_PROJECTSCRATCH_DIR(1) = D:\Data\Research\Publications\SMO\ANSYS files\MMM2\_ProjectScratch\Scr8FF4\

 SET PARAMETER DIMENSIONS ON  _WB_SOLVERFILES_DIR
  TYPE=STRI  DIMENSIONS=      248        1        1

 PARAMETER _WB_SOLVERFILES_DIR(1) = D:\Data\Research\Publications\SMO\ANSYS files\MMM2\MMM01_files\dp0\SYS\MECH\

 SET PARAMETER DIMENSIONS ON  _WB_USERFILES_DIR
  TYPE=STRI  DIMENSIONS=      248        1        1

 PARAMETER _WB_USERFILES_DIR(1) = D:\Data\Research\Publications\SMO\ANSYS files\MMM2\MMM01_files\user_files\
 --- Data in consistent MKS units. See Solving Units in the help system for more

 MKS UNITS SPECIFIED FOR INTERNAL    
  LENGTH        (l)  = METER (M)
  MASS          (M)  = KILOGRAM (KG)
  TIME          (t)  = SECOND (SEC)
  TEMPERATURE   (T)  = CELSIUS (C)
  TOFFSET            = 273.0
  CHARGE        (Q)  = COULOMB
  FORCE         (f)  = NEWTON (N) (KG-M/SEC2)
  HEAT               = JOULE (N-M)

  PRESSURE           = PASCAL (NEWTON/M**2)
  ENERGY        (W)  = JOULE (N-M)
  POWER         (P)  = WATT (N-M/SEC)
  CURRENT       (i)  = AMPERE (COULOMBS/SEC)
  CAPACITANCE   (C)  = FARAD
  INDUCTANCE    (L)  = HENRY
  MAGNETIC FLUX      = WEBER
  RESISTANCE    (R)  = OHM
  ELECTRIC POTENTIAL = VOLT

 INPUT  UNITS ARE ALSO SET TO MKS 

 *** ANSYS - ENGINEERING ANALYSIS SYSTEM  RELEASE Release 19.0     19.0     ***
 DISTRIBUTED ANSYS Mechanical Enterprise                       

 00000000  VERSION=WINDOWS x64   12:42:27  APR 01, 2019 CP=      0.375

 MMM01--Transient (F5)                                                         



          ***** ANSYS ANALYSIS DEFINITION (PREP7) *****
 *********** Nodes for the whole assembly ***********
 *********** Elements for Body 1 "Plate" ***********
 *********** Send User Defined Coordinate System(s) ***********
 *********** Set Reference Temperature ***********
 *********** Send Materials ***********
 *********** Send Named Selection as Node Component ***********
 *********** Send Named Selection as Node Component ***********
 *********** Send Named Selection as Node Component ***********
 *********** Send Named Selection as Node Component ***********
 *********** Send Named Selection as Node Component ***********
 *********** Send Named Selection as Element Component ***********
 *********** Send Named Selection as Element Component ***********
 *********** Fixed Supports ***********
 *********** Create FSI Flags ***********


 ***** ROUTINE COMPLETED *****  CP =         0.406


 --- Number of total nodes = 2310
 --- Number of contact elements = 0
 --- Number of spring elements = 0
 --- Number of bearing elements = 0
 --- Number of solid elements = 300
 --- Number of condensed parts = 0
 --- Number of total elements = 300

 *GET  _WALLBSOL  FROM  ACTI  ITEM=TIME WALL  VALUE=  12.7075000    
 ****************************************************************************
 *************************    SOLUTION       ********************************
 ****************************************************************************

 *****  ANSYS SOLUTION ROUTINE  *****


 PERFORM A TRANSIENT ANALYSIS
  THIS WILL BE A NEW ANALYSIS

 LARGE DEFORMATION ANALYSIS

 STEP BOUNDARY CONDITION KEY= 1

 USE PRECONDITIONED CONJUGATE GRADIENT SOLVER
  CONVERGENCE TOLERANCE = 1.00000E-08
  MAXIMUM ITERATION     = NumNode*DofPerNode*  1.0000    

 CONTACT INFORMATION PRINTOUT LEVEL       1

 SUPPRESS THE FOLLOWING ITEMS FROM BEING WRITTEN TO THE RESULTS FILE:
  NONE                                                                                          

 DO NOT COMBINE ELEMENT MATRIX FILES (.emat) AFTER DISTRIBUTED PARALLEL SOLUTION

 DO NOT COMBINE ELEMENT SAVE DATA FILES (.esav) AFTER DISTRIBUTED PARALLEL SOLUTION

 WRITE ALL COMPONENTS TO THE COMPONENTS FILE.
 START WRITING AT THE BEGINNING OF FILE file.cm

 COMPONENTS WERE WRITTEN TO FILE= file.cm

 PERFORM A FULL TRANSIENT ANALYSIS
  USING HHT ALGORITHM

 USE AMPLITUDE DECAY FACTOR FOR SECOND ORDER TRANSIENT PARAMETERS
   GAMMA= 0.1000      (ALPHA= 0.3025      DELTA= 0.6000      ALPHAF= 0.1000      ALPHAM=  0.000    )

 NLDIAG: Nonlinear diagnostics CONT option is set to ON. 
         Writing frequency : each ITERATION.

 A NEGATIVE FILM COEFFICIENT IS USED AS IS.

 DEFINE RESTART CONTROL FOR LOADSTEP ALL 
 AT FREQUENCY OF LAST AND NUMBER FOR OVERWRITE IS    0

 DELETE RESTART FILES OF ENDSTEP
 ****************************************************
 ******************* SOLVE FOR LS 1 OF 1 ****************

 PRINTOUT RESUMED BY /GOP

 USE AUTOMATIC TIME STEPPING THIS LOAD STEP

 USE INITIAL TIME STEP SIZE OF 0.1000000E-01 FOR ALL  DEGREES OF FREEDOM
 FOR AUTOMATIC TIME STEPPING:
   USE 0.1000000E-01 AS THE MINIMUM TIME STEP SIZE
   USE 0.1000000E-01 AS THE MAXIMUM TIME STEP SIZE

 TIME=  1.0000    

 INCLUDE TRANSIENT EFFECTS FOR  ALL DEGREES OF FREEDOM THIS LOAD STEP

 ERASE THE CURRENT DATABASE OUTPUT CONTROL TABLE.


 WRITE ALL  ITEMS TO THE DATABASE WITH A FREQUENCY OF NONE
   FOR ALL APPLICABLE ENTITIES

 WRITE NSOL ITEMS TO THE DATABASE WITH A FREQUENCY OF ALL 
   FOR ALL APPLICABLE ENTITIES

 WRITE RSOL ITEMS TO THE DATABASE WITH A FREQUENCY OF ALL 
   FOR ALL APPLICABLE ENTITIES

 WRITE STRS ITEMS TO THE DATABASE WITH A FREQUENCY OF ALL 
   FOR ALL APPLICABLE ENTITIES

 WRITE EPEL ITEMS TO THE DATABASE WITH A FREQUENCY OF ALL 
   FOR ALL APPLICABLE ENTITIES

 WRITE EPPL ITEMS TO THE DATABASE WITH A FREQUENCY OF ALL 
   FOR ALL APPLICABLE ENTITIES

 WRITE V    ITEMS TO THE DATABASE WITH A FREQUENCY OF ALL 
   FOR ALL APPLICABLE ENTITIES

 WRITE A    ITEMS TO THE DATABASE WITH A FREQUENCY OF ALL 
   FOR ALL APPLICABLE ENTITIES

 NONLINEAR STABILIZATION CONTROL:
 KEY=OFF 


 *GET  ANSINTER_  FROM  ACTI  ITEM=INT        VALUE=  0.00000000    

 *IF  ANSINTER_                         ( =   0.00000     )  NE  
      0                                 ( =   0.00000     )  THEN    

 *ENDIF

 *** NOTE ***                            CP =       0.406   TIME= 12:42:27
 The automatic domain decomposition logic has selected the MESH domain   
 decomposition method with 2 processes per solution.                     

 *****  ANSYS SOLVE    COMMAND  *****

 *** WARNING ***                         CP =       0.406   TIME= 12:42:27
 Element shape checking is currently inactive.  Issue SHPP,ON or         
 SHPP,WARN to reactivate, if desired.                                    

 *** NOTE ***                            CP =       0.406   TIME= 12:42:27
 The model data was checked and warning messages were found.             
  Please review output or errors file (                                  
 D:\Data\Research\Publications\SMO\ANSYS                                 
 files\MMM2\_ProjectScratch\Scr8FF4\file0.err ) for these warning        
 messages.                                                               

 *** SELECTION OF ELEMENT TECHNOLOGIES FOR APPLICABLE ELEMENTS ***
      --- GIVE SUGGESTIONS AND RESET THE KEY OPTIONS ---

 ELEMENT TYPE    1 IS SOLID186. KEYOPT(2)=0 IS SUGGESTED AND HAS BEEN RESET.
  KEYOPT(1-12)=    0    0    0    0    0    0    0    0    0    0    0    0



 *** ANSYS - ENGINEERING ANALYSIS SYSTEM  RELEASE Release 19.0     19.0     ***
 DISTRIBUTED ANSYS Mechanical Enterprise                       

 00000000  VERSION=WINDOWS x64   12:42:27  APR 01, 2019 CP=      0.406

 MMM01--Transient (F5)                                                         



                       S O L U T I O N   O P T I O N S

   PROBLEM DIMENSIONALITY. . . . . . . . . . . . .3-D                  
   DEGREES OF FREEDOM. . . . . . UX   UY   UZ  
   ANALYSIS TYPE . . . . . . . . . . . . . . . . .TRANSIENT            
      SOLUTION METHOD. . . . . . . . . . . . . . .FULL                 
   OFFSET TEMPERATURE FROM ABSOLUTE ZERO . . . . .  273.15    
   NONLINEAR GEOMETRIC EFFECTS . . . . . . . . . .ON
   EQUATION SOLVER OPTION. . . . . . . . . . . . .PCG                
      TOLERANCE. . . . . . . . . . . . . . . . . . 1.00000E-08
   NEWTON-RAPHSON OPTION . . . . . . . . . . . . .PROGRAM CHOSEN   
   GLOBALLY ASSEMBLED MATRIX . . . . . . . . . . .SYMMETRIC  
   USE SYSTEM COUPLING . . . . . . . . . . . . . .YES

 *** NOTE ***                            CP =       0.406   TIME= 12:42:27
 This nonlinear analysis defaults to using the full Newton-Raphson       
 solution procedure.  This can be modified using the NROPT command.      

 *** NOTE ***                            CP =       0.406   TIME= 12:42:27
 The conditions for direct assembly have been met.  No .emat or .erot    
 files will be produced.                                                 

  
  
     D I S T R I B U T E D   D O M A I N   D E C O M P O S E R
  
  ...Number of elements: 300
  ...Number of nodes:    2310
  ...Decompose to 2 CPU domains
  ...Element load balance ratio =     1.000


 SOLUTION MONITORING INFO IS WRITTEN TO FILE= file.mntr                                                                                                                                                                                                                                                           

 *** DATA TRANSFER INFORMATION ON SOURCE SIDE ***
     SOLVER . . . . . . . . . . . . . . . . . .Transient Structural (Solution 1)
      REGION. . . . . . . . . . . . . . . . . .Fluid Solid Interface (FSIN_1)
      VARIABLE. . . . . . . . . . . . . . . . .Incremental Displacement (INCD)

 *** DATA TRANSFER INFORMATION ON TARGET SIDE ***
     SOLVER . . . . . . . . . . . . . . . . . .Transient Structural (Solution 1)
      REGION. . . . . . . . . . . . . . . . . .Fluid Solid Interface (FSIN_1)
      VARIABLE. . . . . . . . . . . . . . . . .Force (FORC)

 *** LIST MESH INFORMATION ON FSIN INTERFACES
     REGION. . . . . . . . . . . . . . . . . .       1
      NUMBER OF ELEMENTS . . . . . . . . . . .     363
      NUMBER OF NODES. . . . . . . . . . . . .    1338
      NUMBER OF CORNER NODES . . . . . . . . .     488

 *** ANSYS - ENGINEERING ANALYSIS SYSTEM  RELEASE Release 19.0     19.0     ***
 DISTRIBUTED ANSYS Mechanical Enterprise                       

 00000000  VERSION=WINDOWS x64   12:42:31  APR 01, 2019 CP=      0.703

 MMM01--Transient (F5)                                                         



                   C O U P L I N G   S T E P   O P T I O N S

   STEP NUMBER . . . . . . . . . . . . . . . . . .     1
   COUPLING ITERATION. . . . . . . . . . . . . . .     1
   TIME AT END OF THIS STEP. . . . . . . . . . . . 0.10000E-01
   AUTOMATIC TIME STEPPING . . . . . . . . . . . .    ON
      STARTING TIME STEP SIZE. . . . . . . . . . . 0.10000E-01
      MINIMUM TIME STEP SIZE . . . . . . . . . . . 0.10000E-01
      MAXIMUM TIME STEP SIZE . . . . . . . . . . . 0.10000E-01
   MAXIMUM NUMBER OF EQUILIBRIUM ITERATIONS. . . .    15
   STEP CHANGE BOUNDARY CONDITIONS . . . . . . . .   YES
   STRESS-STIFFENING . . . . . . . . . . . . . . .    ON
   TRANSIENT (INERTIA) EFFECTS
      STRUCTURAL DOFS. . . . . . . . . . . . . . .    ON
   TRANSIENT INTEGRATION PARAMETERS
      GAMMA. . . . . . . . . . . . . . . . . . . . 0.10000    
      ALPHA. . . . . . . . . . . . . . . . . . . . 0.30250    
      DELTA. . . . . . . . . . . . . . . . . . . . 0.60000    
      USING HHT TIME INTEGRATION
      ALPHAF . . . . . . . . . . . . . . . . . . . 0.10000    
      ALPHAM . . . . . . . . . . . . . . . . . . .  0.0000    
   TERMINATE ANALYSIS IF NOT CONVERGED . . . . . .YES (EXIT)  
   CONVERGENCE CONTROLS. . . . . . . . . . . . . .USE DEFAULTS
   PRINT OUTPUT CONTROLS . . . . . . . . . . . . .NO PRINTOUT
   DATABASE OUTPUT CONTROLS
      ITEM     FREQUENCY   COMPONENT
       ALL       NONE               
      NSOL        ALL               
      RSOL        ALL               
      STRS        ALL               
      EPEL        ALL               
      EPPL        ALL               
      V           ALL               
      A           ALL               


 *** FORCE SUM ACROSS TARGET INTERFACE . . . . .Fluid Solid Interface (FSIN_1)
     RECEIVING FORCE FX SUM =  0.62981E-04
     RECEIVING FORCE FY SUM =  0.68982    
     RECEIVING FORCE FZ SUM =  -1.3297    


 *** NOTE ***                            CP =       0.781   TIME= 12:42:31
 The PCG solver has automatically set the level of difficulty for this   
 model to 2.                                                             


                         ***********  PRECISE MASS SUMMARY  ***********

   TOTAL RIGID BODY MASS MATRIX ABOUT ORIGIN
               Translational mass               |   Coupled translational/rotational mass
         224.01        0.0000        0.0000     |     0.0000       -172.01      -0.70163    
         0.0000        224.01        0.0000     |     172.01        0.0000       0.34460E-03
         0.0000        0.0000        224.01     |    0.70163      -0.34460E-03    0.0000    
     ------------------------------------------ | ------------------------------------------
                                                |         Rotational mass (inertia)
                                                |     331.35      -0.33713E-04   0.62097E-03
                                                |   -0.33713E-04    314.84        2.6057    
                                                |    0.62097E-03    2.6057        16.884    

   TOTAL MASS =  224.01    
     The mass principal axes coincide with the global Cartesian axes

   CENTER OF MASS (X,Y,Z)=   0.15383E-05   0.31321E-02  -0.76787    

   TOTAL INERTIA ABOUT CENTER OF MASS
         199.27      -0.32634E-04   0.35636E-03
       -0.32634E-04    182.76        2.0669    
        0.35636E-03    2.0669        16.882    

   PRINCIPAL INERTIAS =    199.27        182.79        16.856    
   ORIENTATION VECTORS OF THE INERTIA PRINCIPAL AXES IN GLOBAL CARTESIAN
     ( 1.000,-0.000, 0.000) ( 0.000, 1.000, 0.012) (-0.000,-0.012, 1.000) 


  *** MASS SUMMARY BY ELEMENT TYPE ***

  TYPE      MASS
     1   224.009    

 Range of element maximum matrix coefficients in global coordinates
 Maximum = 1.60008679E+09 at element 283.                                
 Minimum = 127251074 at element 66.                                      

   *** ELEMENT MATRIX FORMULATION TIMES
     TYPE    NUMBER   ENAME      TOTAL CP  AVE CP

        1       300  SOLID186      0.109   0.000365
 Time at end of element matrix formulation CP = 0.859375.                

 ALL CURRENT ANSYS DATA WRITTEN TO FILE NAME= file.rdb
  FOR POSSIBLE RESUME FROM THIS POINT
     FORCE CONVERGENCE VALUE  =   9.805      CRITERION=  0.5003E-01
 curEqn=   1196  totEqn=   1196 Job CP sec=      0.906
      Factor Done= 100% Factor Wall sec=      0.006 rate=    1112.7 Mflops
 Iteration=     5 Ratio=  0.273309     Limit=  1.000000E-08 Wall=     0.0
 Iteration=    55 Ratio=  5.915728E-04 Limit=  1.000000E-08 Wall=     0.0
 Iteration=   145 Ratio=  2.505260E-06 Limit=  1.000000E-08 Wall=     0.1

 DISTRIBUTED PCG SOLVER SOLUTION CONVERGED

 DISTRIBUTED PCG SOLVER SOLUTION STATISTICS

   NUMBER OF DOMAINS   =          25
   NUMBER OF ITERATIONS=         231
   NUMBER OF EQUATIONS =        6930
   LEVEL OF CONVERGENCE=           1
   CALCULATED NORM     = 0.99266E-08
   SPECIFIED TOLERANCE = 0.10000E-07
   TOTAL CPU TIME (sec)=        0.19
   TOTAL WALL TIME(sec)=        0.19
   TOTAL MEMORY (GB)   =        0.00

     DISP CONVERGENCE VALUE   =  0.1419E-05  CRITERION=  0.7241E-07
    EQUIL ITER   1 COMPLETED.  NEW TRIANG MATRIX.  MAX DOF INC=  0.1419E-05
     FORCE CONVERGENCE VALUE  =  0.1429E-02  CRITERION=  0.5112E-01 <<< CONVERGED
     DISP CONVERGENCE VALUE   =  0.7282E-09  CRITERION=  0.7389E-07 <<< CONVERGED
    EQUIL ITER   2 COMPLETED.  NEW TRIANG MATRIX.  MAX DOF INC = -0.7282E-09
    >>> SOLUTION CONVERGED AFTER EQUILIBRIUM ITERATION   2
 *** LOAD STEP     1   SUBSTEP     1  COMPLETED.    CUM ITER =      2
 *** TIME =  0.100000E-01     TIME INC =  0.100000E-01

 *** AVERAGE DISP INCREMENT ACROSS SOURCE INTERFACE. Fluid Solid Interface (FSIN_1)
     AVERAGE SENDING DISPLACEMENT INCREMENT DX =  0.11806E-09
     AVERAGE SENDING DISPLACEMENT INCREMENT DY =  0.78717E-06
     AVERAGE SENDING DISPLACEMENT INCREMENT DZ = -0.17792E-06

   COUPLING ITERATION. . . . . . . . . . . . . . .     2

 *** FORCE SUM ACROSS TARGET INTERFACE . . . . .Fluid Solid Interface (FSIN_1)
     RECEIVING FORCE FX SUM =  0.87483E-04
     RECEIVING FORCE FY SUM =  0.88073    
     RECEIVING FORCE FZ SUM =  -1.9429    

     FORCE CONVERGENCE VALUE  =   14.00      CRITERION=  0.7142E-01
     DISP CONVERGENCE VALUE   =  0.4203E-05  CRITERION=  0.2145E-06
    EQUIL ITER   1 COMPLETED.  NEW TRIANG MATRIX.  MAX DOF INC=  0.4203E-05
     FORCE CONVERGENCE VALUE  =  0.3131E-02  CRITERION=  0.7300E-01 <<< CONVERGED
     DISP CONVERGENCE VALUE   =  0.1667E-08  CRITERION=  0.2188E-06 <<< CONVERGED
    EQUIL ITER   2 COMPLETED.  NEW TRIANG MATRIX.  MAX DOF INC =  0.1667E-08
    >>> SOLUTION CONVERGED AFTER EQUILIBRIUM ITERATION   2
 *** LOAD STEP     1   SUBSTEP     1  COMPLETED.    CUM ITER =      4
 *** TIME =  0.100000E-01     TIME INC =  0.100000E-01

 *** AVERAGE DISP INCREMENT ACROSS SOURCE INTERFACE. Fluid Solid Interface (FSIN_1)
     AVERAGE SENDING DISPLACEMENT INCREMENT DX =  0.16624E-09
     AVERAGE SENDING DISPLACEMENT INCREMENT DY =  0.12653E-05
     AVERAGE SENDING DISPLACEMENT INCREMENT DZ = -0.20927E-06

   COUPLING ITERATION. . . . . . . . . . . . . . .     3

 *** FORCE SUM ACROSS TARGET INTERFACE . . . . .Fluid Solid Interface (FSIN_1)
     RECEIVING FORCE FX SUM =  0.86187E-04
     RECEIVING FORCE FY SUM =  0.95215    
     RECEIVING FORCE FZ SUM =  -1.9446    

     FORCE CONVERGENCE VALUE  =   14.08      CRITERION=  0.7183E-01
     DISP CONVERGENCE VALUE   =  0.4220E-05  CRITERION=  0.2153E-06
    EQUIL ITER   1 COMPLETED.  NEW TRIANG MATRIX.  MAX DOF INC=  0.4220E-05
     FORCE CONVERGENCE VALUE  =  0.3145E-02  CRITERION=  0.7342E-01 <<< CONVERGED
     DISP CONVERGENCE VALUE   =  0.1692E-08  CRITERION=  0.2197E-06 <<< CONVERGED
    EQUIL ITER   2 COMPLETED.  NEW TRIANG MATRIX.  MAX DOF INC =  0.1692E-08
    >>> SOLUTION CONVERGED AFTER EQUILIBRIUM ITERATION   2
 *** LOAD STEP     1   SUBSTEP     1  COMPLETED.    CUM ITER =      6
 *** TIME =  0.100000E-01     TIME INC =  0.100000E-01

 *** AVERAGE DISP INCREMENT ACROSS SOURCE INTERFACE. Fluid Solid Interface (FSIN_1)
     AVERAGE SENDING DISPLACEMENT INCREMENT DX =  0.16557E-09
     AVERAGE SENDING DISPLACEMENT INCREMENT DY =  0.13430E-05
     AVERAGE SENDING DISPLACEMENT INCREMENT DZ = -0.21018E-06

   COUPLING ITERATION. . . . . . . . . . . . . . .     4

 *** FORCE SUM ACROSS TARGET INTERFACE . . . . .Fluid Solid Interface (FSIN_1)
     RECEIVING FORCE FX SUM =  0.86271E-04
     RECEIVING FORCE FY SUM =   1.0043    
     RECEIVING FORCE FZ SUM =  -1.9445    

     FORCE CONVERGENCE VALUE  =   14.12      CRITERION=  0.7206E-01
     DISP CONVERGENCE VALUE   =  0.4237E-05  CRITERION=  0.2162E-06
    EQUIL ITER   1 COMPLETED.  NEW TRIANG MATRIX.  MAX DOF INC=  0.4237E-05
     FORCE CONVERGENCE VALUE  =  0.3155E-02  CRITERION=  0.7364E-01 <<< CONVERGED
     DISP CONVERGENCE VALUE   =  0.1709E-08  CRITERION=  0.2206E-06 <<< CONVERGED
    EQUIL ITER   2 COMPLETED.  NEW TRIANG MATRIX.  MAX DOF INC =  0.1709E-08
    >>> SOLUTION CONVERGED AFTER EQUILIBRIUM ITERATION   2
 *** LOAD STEP     1   SUBSTEP     1  COMPLETED.    CUM ITER =      8
 *** TIME =  0.100000E-01     TIME INC =  0.100000E-01

 *** AVERAGE DISP INCREMENT ACROSS SOURCE INTERFACE. Fluid Solid Interface (FSIN_1)
     AVERAGE SENDING DISPLACEMENT INCREMENT DX =  0.16634E-09
     AVERAGE SENDING DISPLACEMENT INCREMENT DY =  0.13986E-05
     AVERAGE SENDING DISPLACEMENT INCREMENT DZ = -0.21131E-06

   COUPLING ITERATION. . . . . . . . . . . . . . .     5

 *** FORCE SUM ACROSS TARGET INTERFACE . . . . .Fluid Solid Interface (FSIN_1)
     RECEIVING FORCE FX SUM =  0.85583E-04
     RECEIVING FORCE FY SUM =   1.0436    
     RECEIVING FORCE FZ SUM =  -1.9437    

     FORCE CONVERGENCE VALUE  =   14.15      CRITERION=  0.7217E-01
     DISP CONVERGENCE VALUE   =  0.4262E-05  CRITERION=  0.2175E-06
    EQUIL ITER   1 COMPLETED.  NEW TRIANG MATRIX.  MAX DOF INC=  0.4262E-05
     FORCE CONVERGENCE VALUE  =  0.3166E-02  CRITERION=  0.7376E-01 <<< CONVERGED
     DISP CONVERGENCE VALUE   =  0.1722E-08  CRITERION=  0.2219E-06 <<< CONVERGED
    EQUIL ITER   2 COMPLETED.  NEW TRIANG MATRIX.  MAX DOF INC =  0.1722E-08
    >>> SOLUTION CONVERGED AFTER EQUILIBRIUM ITERATION   2
 *** LOAD STEP     1   SUBSTEP     1  COMPLETED.    CUM ITER =     10
 *** TIME =  0.100000E-01     TIME INC =  0.100000E-01

 *** AVERAGE DISP INCREMENT ACROSS SOURCE INTERFACE. Fluid Solid Interface (FSIN_1)
     AVERAGE SENDING DISPLACEMENT INCREMENT DX =  0.16587E-09
     AVERAGE SENDING DISPLACEMENT INCREMENT DY =  0.14402E-05
     AVERAGE SENDING DISPLACEMENT INCREMENT DZ = -0.21238E-06

 >>> COUPLING STEP     1 COMPLETED AFTER COUPLING ITERATION     5

 *** ANSYS - ENGINEERING ANALYSIS SYSTEM  RELEASE Release 19.0     19.0     ***
 DISTRIBUTED ANSYS Mechanical Enterprise                       

 00000000  VERSION=WINDOWS x64   12:42:40  APR 01, 2019 CP=      3.594

 MMM01--Transient (F5)                                                         



                   C O U P L I N G   S T E P   O P T I O N S

   STEP NUMBER . . . . . . . . . . . . . . . . . .     2
   COUPLING ITERATION. . . . . . . . . . . . . . .     1
   TIME AT END OF THIS STEP. . . . . . . . . . . . 0.20000E-01
   AUTOMATIC TIME STEPPING . . . . . . . . . . . .    ON
      STARTING TIME STEP SIZE. . . . . . . . . . . 0.10000E-01
      MINIMUM TIME STEP SIZE . . . . . . . . . . . 0.10000E-01
      MAXIMUM TIME STEP SIZE . . . . . . . . . . . 0.10000E-01


 *** FORCE SUM ACROSS TARGET INTERFACE . . . . .Fluid Solid Interface (FSIN_1)
     RECEIVING FORCE FX SUM =  0.85501E-04
     RECEIVING FORCE FY SUM =   1.0747    
     RECEIVING FORCE FZ SUM =  -1.9435    

     FORCE CONVERGENCE VALUE  =  0.5665      CRITERION=  0.7236E-01
     DISP CONVERGENCE VALUE   =  0.1512E-04  CRITERION=  0.9887E-06
    EQUIL ITER   1 COMPLETED.  NEW TRIANG MATRIX.  MAX DOF INC=  0.1512E-04
     FORCE CONVERGENCE VALUE  =  0.2562E-01  CRITERION=  0.7398E-01 <<< CONVERGED
     DISP CONVERGENCE VALUE   =  0.1187E-09  CRITERION=  0.1009E-05 <<< CONVERGED
    EQUIL ITER   2 COMPLETED.  NEW TRIANG MATRIX.  MAX DOF INC =  0.1187E-09
    >>> SOLUTION CONVERGED AFTER EQUILIBRIUM ITERATION   2
 *** LOAD STEP     2   SUBSTEP     1  COMPLETED.    CUM ITER =     12
 *** TIME =  0.200000E-01     TIME INC =  0.100000E-01
 *** RESPONSE FREQ =  16.26       PERIOD=  0.6149E-01  PTS/CYC =  6.1    

 *** AVERAGE DISP INCREMENT ACROSS SOURCE INTERFACE. Fluid Solid Interface (FSIN_1)
     AVERAGE SENDING DISPLACEMENT INCREMENT DX =  0.82792E-09
     AVERAGE SENDING DISPLACEMENT INCREMENT DY =  0.53923E-05
     AVERAGE SENDING DISPLACEMENT INCREMENT DZ = -0.11240E-06

   COUPLING ITERATION. . . . . . . . . . . . . . .     2

 *** FORCE SUM ACROSS TARGET INTERFACE . . . . .Fluid Solid Interface (FSIN_1)
     RECEIVING FORCE FX SUM =  0.63499E-04
     RECEIVING FORCE FY SUM =  0.69060    
     RECEIVING FORCE FZ SUM =  -1.7562    

     FORCE CONVERGENCE VALUE  =   1.378      CRITERION=  0.6585E-01
     DISP CONVERGENCE VALUE   =  0.1387E-04  CRITERION=  0.9887E-06
    EQUIL ITER   1 COMPLETED.  NEW TRIANG MATRIX.  MAX DOF INC=  0.1387E-04
     FORCE CONVERGENCE VALUE  =  0.2347E-01  CRITERION=  0.6733E-01 <<< CONVERGED
     DISP CONVERGENCE VALUE   =  0.4003E-09  CRITERION=  0.1009E-05 <<< CONVERGED
    EQUIL ITER   2 COMPLETED.  NEW TRIANG MATRIX.  MAX DOF INC = -0.4003E-09
    >>> SOLUTION CONVERGED AFTER EQUILIBRIUM ITERATION   2
 *** LOAD STEP     2   SUBSTEP     1  COMPLETED.    CUM ITER =     14
 *** TIME =  0.200000E-01     TIME INC =  0.100000E-01
 *** RESPONSE FREQ =  16.26       PERIOD=  0.6149E-01  PTS/CYC =  6.1    

 *** AVERAGE DISP INCREMENT ACROSS SOURCE INTERFACE. Fluid Solid Interface (FSIN_1)
     AVERAGE SENDING DISPLACEMENT INCREMENT DX =  0.79649E-09
     AVERAGE SENDING DISPLACEMENT INCREMENT DY =  0.49150E-05
     AVERAGE SENDING DISPLACEMENT INCREMENT DZ = -0.93111E-07

   COUPLING ITERATION. . . . . . . . . . . . . . .     3

 *** FORCE SUM ACROSS TARGET INTERFACE . . . . .Fluid Solid Interface (FSIN_1)
     RECEIVING FORCE FX SUM =  0.61898E-04
     RECEIVING FORCE FY SUM =  0.59968    
     RECEIVING FORCE FZ SUM =  -1.6457    

     FORCE CONVERGENCE VALUE  =   2.054      CRITERION=  0.6220E-01
     DISP CONVERGENCE VALUE   =  0.1326E-04  CRITERION=  0.9887E-06
    EQUIL ITER   1 COMPLETED.  NEW TRIANG MATRIX.  MAX DOF INC=  0.1326E-04
     FORCE CONVERGENCE VALUE  =  0.2221E-01  CRITERION=  0.6360E-01 <<< CONVERGED
     DISP CONVERGENCE VALUE   =  0.6316E-09  CRITERION=  0.1009E-05 <<< CONVERGED
    EQUIL ITER   2 COMPLETED.  NEW TRIANG MATRIX.  MAX DOF INC = -0.6316E-09
    >>> SOLUTION CONVERGED AFTER EQUILIBRIUM ITERATION   2
 *** LOAD STEP     2   SUBSTEP     1  COMPLETED.    CUM ITER =     16
 *** TIME =  0.200000E-01     TIME INC =  0.100000E-01
 *** RESPONSE FREQ =  16.26       PERIOD=  0.6149E-01  PTS/CYC =  6.1    

 *** AVERAGE DISP INCREMENT ACROSS SOURCE INTERFACE. Fluid Solid Interface (FSIN_1)
     AVERAGE SENDING DISPLACEMENT INCREMENT DX =  0.79144E-09
     AVERAGE SENDING DISPLACEMENT INCREMENT DY =  0.47927E-05
     AVERAGE SENDING DISPLACEMENT INCREMENT DZ = -0.78808E-07

   COUPLING ITERATION. . . . . . . . . . . . . . .     4

 *** FORCE SUM ACROSS TARGET INTERFACE . . . . .Fluid Solid Interface (FSIN_1)
     RECEIVING FORCE FX SUM =  0.58329E-04
     RECEIVING FORCE FY SUM =  0.70112    
     RECEIVING FORCE FZ SUM =  -1.5569    

     FORCE CONVERGENCE VALUE  =   2.597      CRITERION=  0.5936E-01
     DISP CONVERGENCE VALUE   =  0.1302E-04  CRITERION=  0.9887E-06
    EQUIL ITER   1 COMPLETED.  NEW TRIANG MATRIX.  MAX DOF INC=  0.1302E-04
     FORCE CONVERGENCE VALUE  =  0.2131E-01  CRITERION=  0.6068E-01 <<< CONVERGED
     DISP CONVERGENCE VALUE   =  0.8060E-09  CRITERION=  0.1009E-05 <<< CONVERGED
    EQUIL ITER   2 COMPLETED.  NEW TRIANG MATRIX.  MAX DOF INC = -0.8060E-09
    >>> SOLUTION CONVERGED AFTER EQUILIBRIUM ITERATION   2
 *** LOAD STEP     2   SUBSTEP     1  COMPLETED.    CUM ITER =     18
 *** TIME =  0.200000E-01     TIME INC =  0.100000E-01
 *** RESPONSE FREQ =  16.26       PERIOD=  0.6149E-01  PTS/CYC =  6.1    

 *** AVERAGE DISP INCREMENT ACROSS SOURCE INTERFACE. Fluid Solid Interface (FSIN_1)
     AVERAGE SENDING DISPLACEMENT INCREMENT DX =  0.78411E-09
     AVERAGE SENDING DISPLACEMENT INCREMENT DY =  0.48960E-05
     AVERAGE SENDING DISPLACEMENT INCREMENT DZ = -0.65442E-07

   COUPLING ITERATION. . . . . . . . . . . . . . .     5

 *** FORCE SUM ACROSS TARGET INTERFACE . . . . .Fluid Solid Interface (FSIN_1)
     RECEIVING FORCE FX SUM =  0.51411E-04
     RECEIVING FORCE FY SUM =   1.0750    
     RECEIVING FORCE FZ SUM =  -1.4742    

     FORCE CONVERGENCE VALUE  =   3.050      CRITERION=  0.5703E-01
     DISP CONVERGENCE VALUE   =  0.1312E-04  CRITERION=  0.9887E-06
    EQUIL ITER   1 COMPLETED.  NEW TRIANG MATRIX.  MAX DOF INC=  0.1312E-04
     FORCE CONVERGENCE VALUE  =  0.2059E-01  CRITERION=  0.5825E-01 <<< CONVERGED
     DISP CONVERGENCE VALUE   =  0.9572E-09  CRITERION=  0.1009E-05 <<< CONVERGED
    EQUIL ITER   2 COMPLETED.  NEW TRIANG MATRIX.  MAX DOF INC = -0.9572E-09
    >>> SOLUTION CONVERGED AFTER EQUILIBRIUM ITERATION   2
 *** LOAD STEP     2   SUBSTEP     1  COMPLETED.    CUM ITER =     20
 *** TIME =  0.200000E-01     TIME INC =  0.100000E-01
 *** RESPONSE FREQ =  16.26       PERIOD=  0.6149E-01  PTS/CYC =  6.1    

 *** AVERAGE DISP INCREMENT ACROSS SOURCE INTERFACE. Fluid Solid Interface (FSIN_1)
     AVERAGE SENDING DISPLACEMENT INCREMENT DX =  0.77211E-09
     AVERAGE SENDING DISPLACEMENT INCREMENT DY =  0.53126E-05
     AVERAGE SENDING DISPLACEMENT INCREMENT DZ = -0.49226E-07

 >>> COUPLING STEP     2 COMPLETED AFTER COUPLING ITERATION     5

 *** ANSYS - ENGINEERING ANALYSIS SYSTEM  RELEASE Release 19.0     19.0     ***
 DISTRIBUTED ANSYS Mechanical Enterprise                       

 00000000  VERSION=WINDOWS x64   12:42:48  APR 01, 2019 CP=      6.297

 MMM01--Transient (F5)                                                         



                   C O U P L I N G   S T E P   O P T I O N S

   STEP NUMBER . . . . . . . . . . . . . . . . . .     3
   COUPLING ITERATION. . . . . . . . . . . . . . .     1
   TIME AT END OF THIS STEP. . . . . . . . . . . . 0.30000E-01
   AUTOMATIC TIME STEPPING . . . . . . . . . . . .    ON
      STARTING TIME STEP SIZE. . . . . . . . . . . 0.10000E-01
      MINIMUM TIME STEP SIZE . . . . . . . . . . . 0.10000E-01
      MAXIMUM TIME STEP SIZE . . . . . . . . . . . 0.10000E-01


 *** FORCE SUM ACROSS TARGET INTERFACE . . . . .Fluid Solid Interface (FSIN_1)
     RECEIVING FORCE FX SUM =  0.47035E-04
     RECEIVING FORCE FY SUM =   1.4064    
     RECEIVING FORCE FZ SUM =  -1.4183    

     FORCE CONVERGENCE VALUE  =  0.9314      CRITERION=  0.5557E-01
     DISP CONVERGENCE VALUE   =  0.2188E-04  CRITERION=  0.1979E-05
    EQUIL ITER   1 COMPLETED.  NEW TRIANG MATRIX.  MAX DOF INC=  0.2188E-04
     FORCE CONVERGENCE VALUE  =  0.2816E-01  CRITERION=  0.5666E-01 <<< CONVERGED
     DISP CONVERGENCE VALUE   =  0.1776E-09  CRITERION=  0.2019E-05 <<< CONVERGED
    EQUIL ITER   2 COMPLETED.  NEW TRIANG MATRIX.  MAX DOF INC =  0.1776E-09
    >>> SOLUTION CONVERGED AFTER EQUILIBRIUM ITERATION   2
 *** LOAD STEP     3   SUBSTEP     1  COMPLETED.    CUM ITER =     22
 *** TIME =  0.300000E-01     TIME INC =  0.100000E-01
 *** RESPONSE FREQ =  2.720       PERIOD=  0.3676      PTS/CYC =  37.    

 *** AVERAGE DISP INCREMENT ACROSS SOURCE INTERFACE. Fluid Solid Interface (FSIN_1)
     AVERAGE SENDING DISPLACEMENT INCREMENT DX =  0.16035E-08
     AVERAGE SENDING DISPLACEMENT INCREMENT DY =  0.10629E-04
     AVERAGE SENDING DISPLACEMENT INCREMENT DZ =  0.52444E-06

   COUPLING ITERATION. . . . . . . . . . . . . . .     2

 *** FORCE SUM ACROSS TARGET INTERFACE . . . . .Fluid Solid Interface (FSIN_1)
     RECEIVING FORCE FX SUM =  0.28560E-04
     RECEIVING FORCE FY SUM =   1.5032    
     RECEIVING FORCE FZ SUM =  -1.4374    

     FORCE CONVERGENCE VALUE  =  0.8942      CRITERION=  0.5663E-01
     DISP CONVERGENCE VALUE   =  0.2217E-04  CRITERION=  0.1996E-05
    EQUIL ITER   1 COMPLETED.  NEW TRIANG MATRIX.  MAX DOF INC=  0.2217E-04
     FORCE CONVERGENCE VALUE  =  0.2878E-01  CRITERION=  0.5775E-01 <<< CONVERGED
     DISP CONVERGENCE VALUE   =  0.1832E-09  CRITERION=  0.2037E-05 <<< CONVERGED
    EQUIL ITER   2 COMPLETED.  NEW TRIANG MATRIX.  MAX DOF INC =  0.1832E-09
    >>> SOLUTION CONVERGED AFTER EQUILIBRIUM ITERATION   2
 *** LOAD STEP     3   SUBSTEP     1  COMPLETED.    CUM ITER =     24
 *** TIME =  0.300000E-01     TIME INC =  0.100000E-01
 *** RESPONSE FREQ =  2.720       PERIOD=  0.3676      PTS/CYC =  37.    

 *** AVERAGE DISP INCREMENT ACROSS SOURCE INTERFACE. Fluid Solid Interface (FSIN_1)
     AVERAGE SENDING DISPLACEMENT INCREMENT DX =  0.15818E-08
     AVERAGE SENDING DISPLACEMENT INCREMENT DY =  0.10753E-04
     AVERAGE SENDING DISPLACEMENT INCREMENT DZ =  0.52646E-06

   COUPLING ITERATION. . . . . . . . . . . . . . .     3

 *** FORCE SUM ACROSS TARGET INTERFACE . . . . .Fluid Solid Interface (FSIN_1)
     RECEIVING FORCE FX SUM =  0.40709E-04
     RECEIVING FORCE FY SUM =  0.93878    
     RECEIVING FORCE FZ SUM =  -1.4905    

     FORCE CONVERGENCE VALUE  =  0.9156      CRITERION=  0.5841E-01
     DISP CONVERGENCE VALUE   =  0.2170E-04  CRITERION=  0.1996E-05
    EQUIL ITER   1 COMPLETED.  NEW TRIANG MATRIX.  MAX DOF INC=  0.2170E-04
     FORCE CONVERGENCE VALUE  =  0.2925E-01  CRITERION=  0.5963E-01 <<< CONVERGED
     DISP CONVERGENCE VALUE   =  0.1858E-09  CRITERION=  0.2037E-05 <<< CONVERGED
    EQUIL ITER   2 COMPLETED.  NEW TRIANG MATRIX.  MAX DOF INC =  0.1858E-09
    >>> SOLUTION CONVERGED AFTER EQUILIBRIUM ITERATION   2
 *** LOAD STEP     3   SUBSTEP     1  COMPLETED.    CUM ITER =     26
 *** TIME =  0.300000E-01     TIME INC =  0.100000E-01
 *** RESPONSE FREQ =  2.720       PERIOD=  0.3676      PTS/CYC =  37.    

 *** AVERAGE DISP INCREMENT ACROSS SOURCE INTERFACE. Fluid Solid Interface (FSIN_1)
     AVERAGE SENDING DISPLACEMENT INCREMENT DX =  0.15998E-08
     AVERAGE SENDING DISPLACEMENT INCREMENT DY =  0.10116E-04
     AVERAGE SENDING DISPLACEMENT INCREMENT DZ =  0.51623E-06

   COUPLING ITERATION. . . . . . . . . . . . . . .     4

 *** FORCE SUM ACROSS TARGET INTERFACE . . . . .Fluid Solid Interface (FSIN_1)
     RECEIVING FORCE FX SUM =  0.49099E-04
     RECEIVING FORCE FY SUM =  0.52790    
     RECEIVING FORCE FZ SUM =  -1.5319    

     FORCE CONVERGENCE VALUE  =   1.022      CRITERION=  0.5981E-01
     DISP CONVERGENCE VALUE   =  0.2137E-04  CRITERION=  0.1996E-05
    EQUIL ITER   1 COMPLETED.  NEW TRIANG MATRIX.  MAX DOF INC=  0.2137E-04
     FORCE CONVERGENCE VALUE  =  0.2964E-01  CRITERION=  0.6110E-01 <<< CONVERGED
     DISP CONVERGENCE VALUE   =  0.1897E-09  CRITERION=  0.2037E-05 <<< CONVERGED
    EQUIL ITER   2 COMPLETED.  NEW TRIANG MATRIX.  MAX DOF INC =  0.1897E-09
    >>> SOLUTION CONVERGED AFTER EQUILIBRIUM ITERATION   2
 *** LOAD STEP     3   SUBSTEP     1  COMPLETED.    CUM ITER =     28
 *** TIME =  0.300000E-01     TIME INC =  0.100000E-01
 *** RESPONSE FREQ =  2.720       PERIOD=  0.3676      PTS/CYC =  37.    

 *** AVERAGE DISP INCREMENT ACROSS SOURCE INTERFACE. Fluid Solid Interface (FSIN_1)
     AVERAGE SENDING DISPLACEMENT INCREMENT DX =  0.16125E-08
     AVERAGE SENDING DISPLACEMENT INCREMENT DY =  0.96506E-05
     AVERAGE SENDING DISPLACEMENT INCREMENT DZ =  0.50804E-06

   COUPLING ITERATION. . . . . . . . . . . . . . .     5

 *** FORCE SUM ACROSS TARGET INTERFACE . . . . .Fluid Solid Interface (FSIN_1)
     RECEIVING FORCE FX SUM =  0.53595E-04
     RECEIVING FORCE FY SUM =  0.21252    
     RECEIVING FORCE FZ SUM =  -1.5631    

     FORCE CONVERGENCE VALUE  =   1.141      CRITERION=  0.6087E-01
     DISP CONVERGENCE VALUE   =  0.2112E-04  CRITERION=  0.1996E-05
    EQUIL ITER   1 COMPLETED.  NEW TRIANG MATRIX.  MAX DOF INC=  0.2112E-04
     FORCE CONVERGENCE VALUE  =  0.2995E-01  CRITERION=  0.6222E-01 <<< CONVERGED
     DISP CONVERGENCE VALUE   =  0.2003E-09  CRITERION=  0.2037E-05 <<< CONVERGED
    EQUIL ITER   2 COMPLETED.  NEW TRIANG MATRIX.  MAX DOF INC =  0.2003E-09
    >>> SOLUTION CONVERGED AFTER EQUILIBRIUM ITERATION   2
 *** LOAD STEP     3   SUBSTEP     1  COMPLETED.    CUM ITER =     30
 *** TIME =  0.300000E-01     TIME INC =  0.100000E-01
 *** RESPONSE FREQ =  2.720       PERIOD=  0.3676      PTS/CYC =  37.    

 *** AVERAGE DISP INCREMENT ACROSS SOURCE INTERFACE. Fluid Solid Interface (FSIN_1)
     AVERAGE SENDING DISPLACEMENT INCREMENT DX =  0.16196E-08
     AVERAGE SENDING DISPLACEMENT INCREMENT DY =  0.92933E-05
     AVERAGE SENDING DISPLACEMENT INCREMENT DZ =  0.50180E-06

 >>> COUPLING STEP     3 COMPLETED AFTER COUPLING ITERATION     5

 *** ANSYS - ENGINEERING ANALYSIS SYSTEM  RELEASE Release 19.0     19.0     ***
 DISTRIBUTED ANSYS Mechanical Enterprise                       

 00000000  VERSION=WINDOWS x64   12:42:55  APR 01, 2019 CP=      8.969

 MMM01--Transient (F5)                                                         



                   C O U P L I N G   S T E P   O P T I O N S

   STEP NUMBER . . . . . . . . . . . . . . . . . .     4
   COUPLING ITERATION. . . . . . . . . . . . . . .     1
   TIME AT END OF THIS STEP. . . . . . . . . . . . 0.40000E-01
   AUTOMATIC TIME STEPPING . . . . . . . . . . . .    ON
      STARTING TIME STEP SIZE. . . . . . . . . . . 0.10000E-01
      MINIMUM TIME STEP SIZE . . . . . . . . . . . 0.10000E-01
      MAXIMUM TIME STEP SIZE . . . . . . . . . . . 0.10000E-01


 *** FORCE SUM ACROSS TARGET INTERFACE . . . . .Fluid Solid Interface (FSIN_1)
     RECEIVING FORCE FX SUM =  0.59178E-04
     RECEIVING FORCE FY SUM = -0.40161E-01
     RECEIVING FORCE FZ SUM =  -1.5865    

     FORCE CONVERGENCE VALUE  =   1.113      CRITERION=  0.6177E-01
     DISP CONVERGENCE VALUE   =  0.2677E-04  CRITERION=  0.3303E-05
    EQUIL ITER   1 COMPLETED.  NEW TRIANG MATRIX.  MAX DOF INC=  0.2677E-04
     FORCE CONVERGENCE VALUE  =  0.3436E-01  CRITERION=  0.6337E-01 <<< CONVERGED
     DISP CONVERGENCE VALUE   =  0.3296E-09  CRITERION=  0.3370E-05 <<< CONVERGED
    EQUIL ITER   2 COMPLETED.  NEW TRIANG MATRIX.  MAX DOF INC =  0.3296E-09
    >>> SOLUTION CONVERGED AFTER EQUILIBRIUM ITERATION   2
 *** LOAD STEP     4   SUBSTEP     1  COMPLETED.    CUM ITER =     32
 *** TIME =  0.400000E-01     TIME INC =  0.100000E-01
 *** RESPONSE FREQ =  2.044       PERIOD=  0.4893      PTS/CYC =  49.    

 *** AVERAGE DISP INCREMENT ACROSS SOURCE INTERFACE. Fluid Solid Interface (FSIN_1)
     AVERAGE SENDING DISPLACEMENT INCREMENT DX =  0.10956E-08
     AVERAGE SENDING DISPLACEMENT INCREMENT DY =  0.11550E-04
     AVERAGE SENDING DISPLACEMENT INCREMENT DZ =  0.33860E-06

   COUPLING ITERATION. . . . . . . . . . . . . . .     2

 *** FORCE SUM ACROSS TARGET INTERFACE . . . . .Fluid Solid Interface (FSIN_1)
     RECEIVING FORCE FX SUM =  0.62120E-04
     RECEIVING FORCE FY SUM = -0.24645    
     RECEIVING FORCE FZ SUM =  -1.6033    

     FORCE CONVERGENCE VALUE  =   1.132      CRITERION=  0.6236E-01
     DISP CONVERGENCE VALUE   =  0.2659E-04  CRITERION=  0.3303E-05
    EQUIL ITER   1 COMPLETED.  NEW TRIANG MATRIX.  MAX DOF INC=  0.2659E-04
     FORCE CONVERGENCE VALUE  =  0.3463E-01  CRITERION=  0.6401E-01 <<< CONVERGED
     DISP CONVERGENCE VALUE   =  0.3334E-09  CRITERION=  0.3370E-05 <<< CONVERGED
    EQUIL ITER   2 COMPLETED.  NEW TRIANG MATRIX.  MAX DOF INC =  0.3334E-09
    >>> SOLUTION CONVERGED AFTER EQUILIBRIUM ITERATION   2
 *** LOAD STEP     4   SUBSTEP     1  COMPLETED.    CUM ITER =     34
 *** TIME =  0.400000E-01     TIME INC =  0.100000E-01
 *** RESPONSE FREQ =  2.044       PERIOD=  0.4893      PTS/CYC =  49.    

 *** AVERAGE DISP INCREMENT ACROSS SOURCE INTERFACE. Fluid Solid Interface (FSIN_1)
     AVERAGE SENDING DISPLACEMENT INCREMENT DX =  0.11008E-08
     AVERAGE SENDING DISPLACEMENT INCREMENT DY =  0.11316E-04
     AVERAGE SENDING DISPLACEMENT INCREMENT DZ =  0.33527E-06

   COUPLING ITERATION. . . . . . . . . . . . . . .     3

 *** FORCE SUM ACROSS TARGET INTERFACE . . . . .Fluid Solid Interface (FSIN_1)
     RECEIVING FORCE FX SUM =  0.83976E-04
     RECEIVING FORCE FY SUM =  -1.0951    
     RECEIVING FORCE FZ SUM =  -1.6498    

     FORCE CONVERGENCE VALUE  =   1.191      CRITERION=  0.6347E-01
     DISP CONVERGENCE VALUE   =  0.2567E-04  CRITERION=  0.3303E-05
    EQUIL ITER   1 COMPLETED.  NEW TRIANG MATRIX.  MAX DOF INC=  0.2567E-04
     FORCE CONVERGENCE VALUE  =  0.3539E-01  CRITERION=  0.6530E-01 <<< CONVERGED
     DISP CONVERGENCE VALUE   =  0.3434E-09  CRITERION=  0.3370E-05 <<< CONVERGED
    EQUIL ITER   2 COMPLETED.  NEW TRIANG MATRIX.  MAX DOF INC =  0.3434E-09
    >>> SOLUTION CONVERGED AFTER EQUILIBRIUM ITERATION   2
 *** LOAD STEP     4   SUBSTEP     1  COMPLETED.    CUM ITER =     36
 *** TIME =  0.400000E-01     TIME INC =  0.100000E-01
 *** RESPONSE FREQ =  2.044       PERIOD=  0.4893      PTS/CYC =  49.    

 *** AVERAGE DISP INCREMENT ACROSS SOURCE INTERFACE. Fluid Solid Interface (FSIN_1)
     AVERAGE SENDING DISPLACEMENT INCREMENT DX =  0.11316E-08
     AVERAGE SENDING DISPLACEMENT INCREMENT DY =  0.10342E-04
     AVERAGE SENDING DISPLACEMENT INCREMENT DZ =  0.31906E-06

   COUPLING ITERATION. . . . . . . . . . . . . . .     4

 *** FORCE SUM ACROSS TARGET INTERFACE . . . . .Fluid Solid Interface (FSIN_1)
     RECEIVING FORCE FX SUM =  0.13152E-03
     RECEIVING FORCE FY SUM =  -2.9075    
     RECEIVING FORCE FZ SUM =  -1.7270    

     FORCE CONVERGENCE VALUE  =   1.339      CRITERION=  0.6510E-01
     DISP CONVERGENCE VALUE   =  0.2346E-04  CRITERION=  0.3303E-05
    EQUIL ITER   1 COMPLETED.  NEW TRIANG MATRIX.  MAX DOF INC=  0.2346E-04
     FORCE CONVERGENCE VALUE  =  0.3718E-01  CRITERION=  0.6729E-01 <<< CONVERGED
     DISP CONVERGENCE VALUE   =  0.3598E-09  CRITERION=  0.3370E-05 <<< CONVERGED
    EQUIL ITER   2 COMPLETED.  NEW TRIANG MATRIX.  MAX DOF INC =  0.3598E-09
    >>> SOLUTION CONVERGED AFTER EQUILIBRIUM ITERATION   2
 *** LOAD STEP     4   SUBSTEP     1  COMPLETED.    CUM ITER =     38
 *** TIME =  0.400000E-01     TIME INC =  0.100000E-01
 *** RESPONSE FREQ =  2.044       PERIOD=  0.4893      PTS/CYC =  49.    

 *** AVERAGE DISP INCREMENT ACROSS SOURCE INTERFACE. Fluid Solid Interface (FSIN_1)
     AVERAGE SENDING DISPLACEMENT INCREMENT DX =  0.11976E-08
     AVERAGE SENDING DISPLACEMENT INCREMENT DY =  0.82406E-05
     AVERAGE SENDING DISPLACEMENT INCREMENT DZ =  0.28544E-06

   COUPLING ITERATION. . . . . . . . . . . . . . .     5

 *** FORCE SUM ACROSS TARGET INTERFACE . . . . .Fluid Solid Interface (FSIN_1)
     RECEIVING FORCE FX SUM =  0.16633E-03
     RECEIVING FORCE FY SUM =  -4.2017    
     RECEIVING FORCE FZ SUM =  -1.7762    

     FORCE CONVERGENCE VALUE  =   1.455      CRITERION=  0.6605E-01
     DISP CONVERGENCE VALUE   =  0.2182E-04  CRITERION=  0.3303E-05
    EQUIL ITER   1 COMPLETED.  NEW TRIANG MATRIX.  MAX DOF INC=  0.2182E-04
     FORCE CONVERGENCE VALUE  =  0.3925E-01  CRITERION=  0.6851E-01 <<< CONVERGED
     DISP CONVERGENCE VALUE   =  0.3735E-09  CRITERION=  0.3370E-05 <<< CONVERGED
    EQUIL ITER   2 COMPLETED.  NEW TRIANG MATRIX.  MAX DOF INC =  0.3735E-09
    >>> SOLUTION CONVERGED AFTER EQUILIBRIUM ITERATION   2
 *** LOAD STEP     4   SUBSTEP     1  COMPLETED.    CUM ITER =     40
 *** TIME =  0.400000E-01     TIME INC =  0.100000E-01
 *** RESPONSE FREQ =  2.044       PERIOD=  0.4893      PTS/CYC =  49.    

 *** AVERAGE DISP INCREMENT ACROSS SOURCE INTERFACE. Fluid Solid Interface (FSIN_1)
     AVERAGE SENDING DISPLACEMENT INCREMENT DX =  0.12460E-08
     AVERAGE SENDING DISPLACEMENT INCREMENT DY =  0.67348E-05
     AVERAGE SENDING DISPLACEMENT INCREMENT DZ =  0.26166E-06

 >>> COUPLING STEP     4 COMPLETED AFTER COUPLING ITERATION     5

 *** ANSYS - ENGINEERING ANALYSIS SYSTEM  RELEASE Release 19.0     19.0     ***
 DISTRIBUTED ANSYS Mechanical Enterprise                       

 00000000  VERSION=WINDOWS x64   12:43:03  APR 01, 2019 CP=     11.750

 MMM01--Transient (F5)                                                         



                   C O U P L I N G   S T E P   O P T I O N S

   STEP NUMBER . . . . . . . . . . . . . . . . . .     5
   COUPLING ITERATION. . . . . . . . . . . . . . .     1
   TIME AT END OF THIS STEP. . . . . . . . . . . . 0.50000E-01
   AUTOMATIC TIME STEPPING . . . . . . . . . . . .    ON
      STARTING TIME STEP SIZE. . . . . . . . . . . 0.10000E-01
      MINIMUM TIME STEP SIZE . . . . . . . . . . . 0.10000E-01
      MAXIMUM TIME STEP SIZE . . . . . . . . . . . 0.10000E-01


 *** FORCE SUM ACROSS TARGET INTERFACE . . . . .Fluid Solid Interface (FSIN_1)
     RECEIVING FORCE FX SUM =  0.19350E-03
     RECEIVING FORCE FY SUM =  -5.1903    
     RECEIVING FORCE FZ SUM =  -1.8098    

     FORCE CONVERGENCE VALUE  =   1.248      CRITERION=  0.6773E-01
     DISP CONVERGENCE VALUE   =  0.3484E-04  CRITERION=  0.3705E-05
    EQUIL ITER   1 COMPLETED.  NEW TRIANG MATRIX.  MAX DOF INC= -0.3484E-04
     FORCE CONVERGENCE VALUE  =  0.1304      CRITERION=  0.7285E-01
     DISP CONVERGENCE VALUE   =  0.1076E-08  CRITERION=  0.3780E-05 <<< CONVERGED
    EQUIL ITER   2 COMPLETED.  NEW TRIANG MATRIX.  MAX DOF INC=  0.1076E-08
     FORCE CONVERGENCE VALUE  =  0.1796E-07  CRITERION=  0.7434E-01 <<< CONVERGED
    >>> SOLUTION CONVERGED AFTER EQUILIBRIUM ITERATION   2
 *** LOAD STEP     5   SUBSTEP     1  COMPLETED.    CUM ITER =     42
 *** TIME =  0.500000E-01     TIME INC =  0.100000E-01
 *** RESPONSE FREQ =  3.157       PERIOD=  0.3167      PTS/CYC =  32.    

 *** AVERAGE DISP INCREMENT ACROSS SOURCE INTERFACE. Fluid Solid Interface (FSIN_1)
     AVERAGE SENDING DISPLACEMENT INCREMENT DX = -0.16826E-08
     AVERAGE SENDING DISPLACEMENT INCREMENT DY = -0.53813E-05
     AVERAGE SENDING DISPLACEMENT INCREMENT DZ = -0.69769E-07

   COUPLING ITERATION. . . . . . . . . . . . . . .     2

 *** FORCE SUM ACROSS TARGET INTERFACE . . . . .Fluid Solid Interface (FSIN_1)
     RECEIVING FORCE FX SUM =  0.19664E-03
     RECEIVING FORCE FY SUM =  -5.9516    
     RECEIVING FORCE FZ SUM =  -1.8326    

     FORCE CONVERGENCE VALUE  =   1.271      CRITERION=  0.6812E-01
     DISP CONVERGENCE VALUE   =  0.3590E-04  CRITERION=  0.3705E-05
    EQUIL ITER   1 COMPLETED.  NEW TRIANG MATRIX.  MAX DOF INC= -0.3590E-04
     FORCE CONVERGENCE VALUE  =  0.1369      CRITERION=  0.7352E-01
     DISP CONVERGENCE VALUE   =  0.1111E-08  CRITERION=  0.3780E-05 <<< CONVERGED
    EQUIL ITER   2 COMPLETED.  NEW TRIANG MATRIX.  MAX DOF INC=  0.1111E-08
     FORCE CONVERGENCE VALUE  =  0.1907E-07  CRITERION=  0.7502E-01 <<< CONVERGED
    >>> SOLUTION CONVERGED AFTER EQUILIBRIUM ITERATION   2
 *** LOAD STEP     5   SUBSTEP     1  COMPLETED.    CUM ITER =     44
 *** TIME =  0.500000E-01     TIME INC =  0.100000E-01
 *** RESPONSE FREQ =  3.157       PERIOD=  0.3167      PTS/CYC =  32.    

 *** AVERAGE DISP INCREMENT ACROSS SOURCE INTERFACE. Fluid Solid Interface (FSIN_1)
     AVERAGE SENDING DISPLACEMENT INCREMENT DX = -0.16758E-08
     AVERAGE SENDING DISPLACEMENT INCREMENT DY = -0.62695E-05
     AVERAGE SENDING DISPLACEMENT INCREMENT DZ = -0.82472E-07

   COUPLING ITERATION. . . . . . . . . . . . . . .     3

 *** FORCE SUM ACROSS TARGET INTERFACE . . . . .Fluid Solid Interface (FSIN_1)
     RECEIVING FORCE FX SUM =  0.20643E-03
     RECEIVING FORCE FY SUM =  -6.3271    
     RECEIVING FORCE FZ SUM =  -1.8290    

     FORCE CONVERGENCE VALUE  =   1.265      CRITERION=  0.6763E-01
     DISP CONVERGENCE VALUE   =  0.3620E-04  CRITERION=  0.3705E-05
    EQUIL ITER   1 COMPLETED.  NEW TRIANG MATRIX.  MAX DOF INC= -0.3620E-04
     FORCE CONVERGENCE VALUE  =  0.1382      CRITERION=  0.7312E-01
     DISP CONVERGENCE VALUE   =  0.1113E-08  CRITERION=  0.3780E-05 <<< CONVERGED
    EQUIL ITER   2 COMPLETED.  NEW TRIANG MATRIX.  MAX DOF INC=  0.1113E-08
     FORCE CONVERGENCE VALUE  =  0.1915E-07  CRITERION=  0.7461E-01 <<< CONVERGED
    >>> SOLUTION CONVERGED AFTER EQUILIBRIUM ITERATION   2
 *** LOAD STEP     5   SUBSTEP     1  COMPLETED.    CUM ITER =     46
 *** TIME =  0.500000E-01     TIME INC =  0.100000E-01
 *** RESPONSE FREQ =  3.157       PERIOD=  0.3167      PTS/CYC =  32.    

 *** AVERAGE DISP INCREMENT ACROSS SOURCE INTERFACE. Fluid Solid Interface (FSIN_1)
     AVERAGE SENDING DISPLACEMENT INCREMENT DX = -0.16625E-08
     AVERAGE SENDING DISPLACEMENT INCREMENT DY = -0.67241E-05
     AVERAGE SENDING DISPLACEMENT INCREMENT DZ = -0.90463E-07

   COUPLING ITERATION. . . . . . . . . . . . . . .     4

 *** FORCE SUM ACROSS TARGET INTERFACE . . . . .Fluid Solid Interface (FSIN_1)
     RECEIVING FORCE FX SUM =  0.24124E-03
     RECEIVING FORCE FY SUM =  -7.5469    
     RECEIVING FORCE FZ SUM =  -1.8499    

     FORCE CONVERGENCE VALUE  =   1.288      CRITERION=  0.6736E-01
     DISP CONVERGENCE VALUE   =  0.3728E-04  CRITERION=  0.3705E-05
    EQUIL ITER   1 COMPLETED.  NEW TRIANG MATRIX.  MAX DOF INC= -0.3728E-04
     FORCE CONVERGENCE VALUE  =  0.1436      CRITERION=  0.7312E-01
     DISP CONVERGENCE VALUE   =  0.1127E-08  CRITERION=  0.3780E-05 <<< CONVERGED
    EQUIL ITER   2 COMPLETED.  NEW TRIANG MATRIX.  MAX DOF INC=  0.1127E-08
     FORCE CONVERGENCE VALUE  =  0.1988E-07  CRITERION=  0.7461E-01 <<< CONVERGED
    >>> SOLUTION CONVERGED AFTER EQUILIBRIUM ITERATION   2
 *** LOAD STEP     5   SUBSTEP     1  COMPLETED.    CUM ITER =     48
 *** TIME =  0.500000E-01     TIME INC =  0.100000E-01
 *** RESPONSE FREQ =  3.157       PERIOD=  0.3167      PTS/CYC =  32.    

 *** AVERAGE DISP INCREMENT ACROSS SOURCE INTERFACE. Fluid Solid Interface (FSIN_1)
     AVERAGE SENDING DISPLACEMENT INCREMENT DX = -0.16146E-08
     AVERAGE SENDING DISPLACEMENT INCREMENT DY = -0.81940E-05
     AVERAGE SENDING DISPLACEMENT INCREMENT DZ = -0.11874E-06

   COUPLING ITERATION. . . . . . . . . . . . . . .     5

 *** FORCE SUM ACROSS TARGET INTERFACE . . . . .Fluid Solid Interface (FSIN_1)
     RECEIVING FORCE FX SUM =  0.26059E-03
     RECEIVING FORCE FY SUM =  -8.1571    
     RECEIVING FORCE FZ SUM =  -1.8657    

     FORCE CONVERGENCE VALUE  =   1.305      CRITERION=  0.6744E-01
     DISP CONVERGENCE VALUE   =  0.3779E-04  CRITERION=  0.3705E-05
    EQUIL ITER   1 COMPLETED.  NEW TRIANG MATRIX.  MAX DOF INC= -0.3779E-04
     FORCE CONVERGENCE VALUE  =  0.1462      CRITERION=  0.7331E-01
     DISP CONVERGENCE VALUE   =  0.1132E-08  CRITERION=  0.3780E-05 <<< CONVERGED
    EQUIL ITER   2 COMPLETED.  NEW TRIANG MATRIX.  MAX DOF INC=  0.1132E-08
     FORCE CONVERGENCE VALUE  =  0.2027E-07  CRITERION=  0.7481E-01 <<< CONVERGED
    >>> SOLUTION CONVERGED AFTER EQUILIBRIUM ITERATION   2
 *** LOAD STEP     5   SUBSTEP     1  COMPLETED.    CUM ITER =     50
 *** TIME =  0.500000E-01     TIME INC =  0.100000E-01
 *** RESPONSE FREQ =  3.157       PERIOD=  0.3167      PTS/CYC =  32.    

 *** AVERAGE DISP INCREMENT ACROSS SOURCE INTERFACE. Fluid Solid Interface (FSIN_1)
     AVERAGE SENDING DISPLACEMENT INCREMENT DX = -0.15881E-08
     AVERAGE SENDING DISPLACEMENT INCREMENT DY = -0.89312E-05
     AVERAGE SENDING DISPLACEMENT INCREMENT DZ = -0.13358E-06

 >>> COUPLING STEP     5 COMPLETED AFTER COUPLING ITERATION     5

 *** ANSYS - ENGINEERING ANALYSIS SYSTEM  RELEASE Release 19.0     19.0     ***
 DISTRIBUTED ANSYS Mechanical Enterprise                       

 00000000  VERSION=WINDOWS x64   12:43:11  APR 01, 2019 CP=     14.922

 MMM01--Transient (F5)                                                         



                   C O U P L I N G   S T E P   O P T I O N S

   STEP NUMBER . . . . . . . . . . . . . . . . . .     6
   COUPLING ITERATION. . . . . . . . . . . . . . .     1
   TIME AT END OF THIS STEP. . . . . . . . . . . . 0.60000E-01
   AUTOMATIC TIME STEPPING . . . . . . . . . . . .    ON
      STARTING TIME STEP SIZE. . . . . . . . . . . 0.10000E-01
      MINIMUM TIME STEP SIZE . . . . . . . . . . . 0.10000E-01
      MAXIMUM TIME STEP SIZE . . . . . . . . . . . 0.10000E-01


 *** FORCE SUM ACROSS TARGET INTERFACE . . . . .Fluid Solid Interface (FSIN_1)
     RECEIVING FORCE FX SUM =  0.28361E-03
     RECEIVING FORCE FY SUM =  -8.8922    
     RECEIVING FORCE FZ SUM =  -1.8808    

     FORCE CONVERGENCE VALUE  =   2.863      CRITERION=  0.7187E-01
     DISP CONVERGENCE VALUE   =  0.7598E-04  CRITERION=  0.6682E-05
    EQUIL ITER   1 COMPLETED.  NEW TRIANG MATRIX.  MAX DOF INC= -0.7598E-04
     FORCE CONVERGENCE VALUE  =  0.4372      CRITERION=  0.8196E-01
     DISP CONVERGENCE VALUE   =  0.3360E-08  CRITERION=  0.6819E-05 <<< CONVERGED
    EQUIL ITER   2 COMPLETED.  NEW TRIANG MATRIX.  MAX DOF INC=  0.3360E-08
     FORCE CONVERGENCE VALUE  =  0.6554E-07  CRITERION=  0.8363E-01 <<< CONVERGED
    >>> SOLUTION CONVERGED AFTER EQUILIBRIUM ITERATION   2
 *** LOAD STEP     6   SUBSTEP     1  COMPLETED.    CUM ITER =     52
 *** TIME =  0.600000E-01     TIME INC =  0.100000E-01
 *** RESPONSE FREQ =  4.713       PERIOD=  0.2122      PTS/CYC =  21.    

 *** AVERAGE DISP INCREMENT ACROSS SOURCE INTERFACE. Fluid Solid Interface (FSIN_1)
     AVERAGE SENDING DISPLACEMENT INCREMENT DX = -0.63958E-08
     AVERAGE SENDING DISPLACEMENT INCREMENT DY = -0.35392E-04
     AVERAGE SENDING DISPLACEMENT INCREMENT DZ = -0.54240E-07

   COUPLING ITERATION. . . . . . . . . . . . . . .     2

 *** FORCE SUM ACROSS TARGET INTERFACE . . . . .Fluid Solid Interface (FSIN_1)
     RECEIVING FORCE FX SUM =  0.24606E-03
     RECEIVING FORCE FY SUM =  -9.4508    
     RECEIVING FORCE FZ SUM =  -1.8931    

     FORCE CONVERGENCE VALUE  =   2.881      CRITERION=  0.7195E-01
     DISP CONVERGENCE VALUE   =  0.7657E-04  CRITERION=  0.6711E-05
    EQUIL ITER   1 COMPLETED.  NEW TRIANG MATRIX.  MAX DOF INC= -0.7657E-04
     FORCE CONVERGENCE VALUE  =  0.4434      CRITERION=  0.8224E-01
     DISP CONVERGENCE VALUE   =  0.3409E-08  CRITERION=  0.6848E-05 <<< CONVERGED
    EQUIL ITER   2 COMPLETED.  NEW TRIANG MATRIX.  MAX DOF INC=  0.3409E-08
     FORCE CONVERGENCE VALUE  =  0.6667E-07  CRITERION=  0.8392E-01 <<< CONVERGED
    >>> SOLUTION CONVERGED AFTER EQUILIBRIUM ITERATION   2
 *** LOAD STEP     6   SUBSTEP     1  COMPLETED.    CUM ITER =     54
 *** TIME =  0.600000E-01     TIME INC =  0.100000E-01
 *** RESPONSE FREQ =  4.713       PERIOD=  0.2122      PTS/CYC =  21.    

 *** AVERAGE DISP INCREMENT ACROSS SOURCE INTERFACE. Fluid Solid Interface (FSIN_1)
     AVERAGE SENDING DISPLACEMENT INCREMENT DX = -0.64404E-08
     AVERAGE SENDING DISPLACEMENT INCREMENT DY = -0.36060E-04
     AVERAGE SENDING DISPLACEMENT INCREMENT DZ = -0.65427E-07

   COUPLING ITERATION. . . . . . . . . . . . . . .     3

 *** FORCE SUM ACROSS TARGET INTERFACE . . . . .Fluid Solid Interface (FSIN_1)
     RECEIVING FORCE FX SUM =  0.24164E-03
     RECEIVING FORCE FY SUM =  -9.0954    
     RECEIVING FORCE FZ SUM =  -1.8835    

     FORCE CONVERGENCE VALUE  =   2.867      CRITERION=  0.7173E-01
     DISP CONVERGENCE VALUE   =  0.7589E-04  CRITERION=  0.6711E-05
    EQUIL ITER   1 COMPLETED.  NEW TRIANG MATRIX.  MAX DOF INC= -0.7589E-04
     FORCE CONVERGENCE VALUE  =  0.4352      CRITERION=  0.8171E-01
     DISP CONVERGENCE VALUE   =  0.3346E-08  CRITERION=  0.6848E-05 <<< CONVERGED
    EQUIL ITER   2 COMPLETED.  NEW TRIANG MATRIX.  MAX DOF INC=  0.3346E-08
     FORCE CONVERGENCE VALUE  =  0.6488E-07  CRITERION=  0.8338E-01 <<< CONVERGED
    >>> SOLUTION CONVERGED AFTER EQUILIBRIUM ITERATION   2
 *** LOAD STEP     6   SUBSTEP     1  COMPLETED.    CUM ITER =     56
 *** TIME =  0.600000E-01     TIME INC =  0.100000E-01
 *** RESPONSE FREQ =  4.713       PERIOD=  0.2122      PTS/CYC =  21.    

 *** AVERAGE DISP INCREMENT ACROSS SOURCE INTERFACE. Fluid Solid Interface (FSIN_1)
     AVERAGE SENDING DISPLACEMENT INCREMENT DX = -0.64468E-08
     AVERAGE SENDING DISPLACEMENT INCREMENT DY = -0.35663E-04
     AVERAGE SENDING DISPLACEMENT INCREMENT DZ = -0.63091E-07

 >>> COUPLING STEP     6 COMPLETED AFTER COUPLING ITERATION     3

 *** ANSYS - ENGINEERING ANALYSIS SYSTEM  RELEASE Release 19.0     19.0     ***
 DISTRIBUTED ANSYS Mechanical Enterprise                       

 00000000  VERSION=WINDOWS x64   12:43:17  APR 01, 2019 CP=     16.969

 MMM01--Transient (F5)                                                         



                   C O U P L I N G   S T E P   O P T I O N S

   STEP NUMBER . . . . . . . . . . . . . . . . . .     7
   COUPLING ITERATION. . . . . . . . . . . . . . .     1
   TIME AT END OF THIS STEP. . . . . . . . . . . . 0.70000E-01
   AUTOMATIC TIME STEPPING . . . . . . . . . . . .    ON
      STARTING TIME STEP SIZE. . . . . . . . . . . 0.10000E-01
      MINIMUM TIME STEP SIZE . . . . . . . . . . . 0.10000E-01
      MAXIMUM TIME STEP SIZE . . . . . . . . . . . 0.10000E-01


 *** FORCE SUM ACROSS TARGET INTERFACE . . . . .Fluid Solid Interface (FSIN_1)
     RECEIVING FORCE FX SUM =  0.23265E-03
     RECEIVING FORCE FY SUM =  -8.4258    
     RECEIVING FORCE FZ SUM =  -1.8697    

     FORCE CONVERGENCE VALUE  =   4.935      CRITERION=  0.7980E-01
     DISP CONVERGENCE VALUE   =  0.1186E-03  CRITERION=  0.1234E-04
    EQUIL ITER   1 COMPLETED.  NEW TRIANG MATRIX.  MAX DOF INC= -0.1186E-03
     FORCE CONVERGENCE VALUE  =  0.8517      CRITERION=  0.9208E-01
     DISP CONVERGENCE VALUE   =  0.7119E-08  CRITERION=  0.1260E-04 <<< CONVERGED
    EQUIL ITER   2 COMPLETED.  NEW TRIANG MATRIX.  MAX DOF INC=  0.7119E-08
     FORCE CONVERGENCE VALUE  =  0.1337E-06  CRITERION=  0.9395E-01 <<< CONVERGED
    >>> SOLUTION CONVERGED AFTER EQUILIBRIUM ITERATION   2
 *** LOAD STEP     7   SUBSTEP     1  COMPLETED.    CUM ITER =     58
 *** TIME =  0.700000E-01     TIME INC =  0.100000E-01
 *** RESPONSE FREQ =  3.078       PERIOD=  0.3249      PTS/CYC =  32.    

 *** AVERAGE DISP INCREMENT ACROSS SOURCE INTERFACE. Fluid Solid Interface (FSIN_1)
     AVERAGE SENDING DISPLACEMENT INCREMENT DX = -0.11002E-07
     AVERAGE SENDING DISPLACEMENT INCREMENT DY = -0.65327E-04
     AVERAGE SENDING DISPLACEMENT INCREMENT DZ = -0.56256E-06

   COUPLING ITERATION. . . . . . . . . . . . . . .     2

 *** FORCE SUM ACROSS TARGET INTERFACE . . . . .Fluid Solid Interface (FSIN_1)
     RECEIVING FORCE FX SUM =  0.19333E-03
     RECEIVING FORCE FY SUM =  -8.0243    
     RECEIVING FORCE FZ SUM =  -1.8600    

     FORCE CONVERGENCE VALUE  =   4.920      CRITERION=  0.7960E-01
     DISP CONVERGENCE VALUE   =  0.1178E-03  CRITERION=  0.1234E-04
    EQUIL ITER   1 COMPLETED.  NEW TRIANG MATRIX.  MAX DOF INC= -0.1178E-03
     FORCE CONVERGENCE VALUE  =  0.8416      CRITERION=  0.9138E-01
     DISP CONVERGENCE VALUE   =  0.7029E-08  CRITERION=  0.1260E-04 <<< CONVERGED
    EQUIL ITER   2 COMPLETED.  NEW TRIANG MATRIX.  MAX DOF INC=  0.7029E-08
     FORCE CONVERGENCE VALUE  =  0.1310E-06  CRITERION=  0.9324E-01 <<< CONVERGED
    >>> SOLUTION CONVERGED AFTER EQUILIBRIUM ITERATION   2
 *** LOAD STEP     7   SUBSTEP     1  COMPLETED.    CUM ITER =     60
 *** TIME =  0.700000E-01     TIME INC =  0.100000E-01
 *** RESPONSE FREQ =  3.078       PERIOD=  0.3249      PTS/CYC =  32.    

 *** AVERAGE DISP INCREMENT ACROSS SOURCE INTERFACE. Fluid Solid Interface (FSIN_1)
     AVERAGE SENDING DISPLACEMENT INCREMENT DX = -0.11051E-07
     AVERAGE SENDING DISPLACEMENT INCREMENT DY = -0.64885E-04
     AVERAGE SENDING DISPLACEMENT INCREMENT DZ = -0.56170E-06

 >>> COUPLING STEP     7 COMPLETED AFTER COUPLING ITERATION     2

 *** ANSYS - ENGINEERING ANALYSIS SYSTEM  RELEASE Release 19.0     19.0     ***
 DISTRIBUTED ANSYS Mechanical Enterprise                       

 00000000  VERSION=WINDOWS x64   12:43:21  APR 01, 2019 CP=     18.297

 MMM01--Transient (F5)                                                         



                   C O U P L I N G   S T E P   O P T I O N S

   STEP NUMBER . . . . . . . . . . . . . . . . . .     8
   COUPLING ITERATION. . . . . . . . . . . . . . .     1
   TIME AT END OF THIS STEP. . . . . . . . . . . . 0.80000E-01
   AUTOMATIC TIME STEPPING . . . . . . . . . . . .    ON
      STARTING TIME STEP SIZE. . . . . . . . . . . 0.10000E-01
      MINIMUM TIME STEP SIZE . . . . . . . . . . . 0.10000E-01
      MAXIMUM TIME STEP SIZE . . . . . . . . . . . 0.10000E-01


 *** FORCE SUM ACROSS TARGET INTERFACE . . . . .Fluid Solid Interface (FSIN_1)
     RECEIVING FORCE FX SUM =  0.18244E-03
     RECEIVING FORCE FY SUM =  -7.1713    
     RECEIVING FORCE FZ SUM =  -1.8305    

     FORCE CONVERGENCE VALUE  =   6.750      CRITERION=  0.8901E-01
     DISP CONVERGENCE VALUE   =  0.1565E-03  CRITERION=  0.1969E-04
    EQUIL ITER   1 COMPLETED.  NEW TRIANG MATRIX.  MAX DOF INC= -0.1565E-03
     FORCE CONVERGENCE VALUE  =   1.238      CRITERION=  0.1008    
     DISP CONVERGENCE VALUE   =  0.1109E-07  CRITERION=  0.2009E-04 <<< CONVERGED
    EQUIL ITER   2 COMPLETED.  NEW TRIANG MATRIX.  MAX DOF INC=  0.1109E-07
     FORCE CONVERGENCE VALUE  =  0.1989E-06  CRITERION=  0.1028     <<< CONVERGED
    >>> SOLUTION CONVERGED AFTER EQUILIBRIUM ITERATION   2
 *** LOAD STEP     8   SUBSTEP     1  COMPLETED.    CUM ITER =     62
 *** TIME =  0.800000E-01     TIME INC =  0.100000E-01
 *** RESPONSE FREQ =  2.193       PERIOD=  0.4560      PTS/CYC =  46.    

 *** AVERAGE DISP INCREMENT ACROSS SOURCE INTERFACE. Fluid Solid Interface (FSIN_1)
     AVERAGE SENDING DISPLACEMENT INCREMENT DX = -0.12340E-07
     AVERAGE SENDING DISPLACEMENT INCREMENT DY = -0.90924E-04
     AVERAGE SENDING DISPLACEMENT INCREMENT DZ = -0.13800E-05

   COUPLING ITERATION. . . . . . . . . . . . . . .     2

 *** FORCE SUM ACROSS TARGET INTERFACE . . . . .Fluid Solid Interface (FSIN_1)
     RECEIVING FORCE FX SUM =  0.15250E-03
     RECEIVING FORCE FY SUM =  -5.5580    
     RECEIVING FORCE FZ SUM =  -1.7614    

     FORCE CONVERGENCE VALUE  =   6.709      CRITERION=  0.8767E-01
     DISP CONVERGENCE VALUE   =  0.1539E-03  CRITERION=  0.1969E-04
    EQUIL ITER   1 COMPLETED.  NEW TRIANG MATRIX.  MAX DOF INC= -0.1539E-03
     FORCE CONVERGENCE VALUE  =   1.211      CRITERION=  0.9782E-01
     DISP CONVERGENCE VALUE   =  0.1077E-07  CRITERION=  0.2009E-04 <<< CONVERGED
    EQUIL ITER   2 COMPLETED.  NEW TRIANG MATRIX.  MAX DOF INC=  0.1077E-07
     FORCE CONVERGENCE VALUE  =  0.1896E-06  CRITERION=  0.9982E-01 <<< CONVERGED
    >>> SOLUTION CONVERGED AFTER EQUILIBRIUM ITERATION   2
 *** LOAD STEP     8   SUBSTEP     1  COMPLETED.    CUM ITER =     64
 *** TIME =  0.800000E-01     TIME INC =  0.100000E-01
 *** RESPONSE FREQ =  2.193       PERIOD=  0.4560      PTS/CYC =  46.    

 *** AVERAGE DISP INCREMENT ACROSS SOURCE INTERFACE. Fluid Solid Interface (FSIN_1)
     AVERAGE SENDING DISPLACEMENT INCREMENT DX = -0.12383E-07
     AVERAGE SENDING DISPLACEMENT INCREMENT DY = -0.89088E-04
     AVERAGE SENDING DISPLACEMENT INCREMENT DZ = -0.13604E-05

   COUPLING ITERATION. . . . . . . . . . . . . . .     3

 *** FORCE SUM ACROSS TARGET INTERFACE . . . . .Fluid Solid Interface (FSIN_1)
     RECEIVING FORCE FX SUM =  0.13260E-03
     RECEIVING FORCE FY SUM =  -4.0530    
     RECEIVING FORCE FZ SUM =  -1.6869    

     FORCE CONVERGENCE VALUE  =   6.698      CRITERION=  0.8623E-01
     DISP CONVERGENCE VALUE   =  0.1516E-03  CRITERION=  0.1969E-04
    EQUIL ITER   1 COMPLETED.  NEW TRIANG MATRIX.  MAX DOF INC= -0.1516E-03
     FORCE CONVERGENCE VALUE  =   1.188      CRITERION=  0.9501E-01
     DISP CONVERGENCE VALUE   =  0.1050E-07  CRITERION=  0.2009E-04 <<< CONVERGED
    EQUIL ITER   2 COMPLETED.  NEW TRIANG MATRIX.  MAX DOF INC=  0.1050E-07
     FORCE CONVERGENCE VALUE  =  0.1812E-06  CRITERION=  0.9695E-01 <<< CONVERGED
    >>> SOLUTION CONVERGED AFTER EQUILIBRIUM ITERATION   2
 *** LOAD STEP     8   SUBSTEP     1  COMPLETED.    CUM ITER =     66
 *** TIME =  0.800000E-01     TIME INC =  0.100000E-01
 *** RESPONSE FREQ =  2.193       PERIOD=  0.4560      PTS/CYC =  46.    

 *** AVERAGE DISP INCREMENT ACROSS SOURCE INTERFACE. Fluid Solid Interface (FSIN_1)
     AVERAGE SENDING DISPLACEMENT INCREMENT DX = -0.12414E-07
     AVERAGE SENDING DISPLACEMENT INCREMENT DY = -0.87361E-04
     AVERAGE SENDING DISPLACEMENT INCREMENT DZ = -0.13375E-05

   COUPLING ITERATION. . . . . . . . . . . . . . .     4

 *** FORCE SUM ACROSS TARGET INTERFACE . . . . .Fluid Solid Interface (FSIN_1)
     RECEIVING FORCE FX SUM =  0.96998E-04
     RECEIVING FORCE FY SUM =  -1.4274    
     RECEIVING FORCE FZ SUM =  -1.5511    

     FORCE CONVERGENCE VALUE  =   6.746      CRITERION=  0.8366E-01
     DISP CONVERGENCE VALUE   =  0.1476E-03  CRITERION=  0.1969E-04
    EQUIL ITER   1 COMPLETED.  NEW TRIANG MATRIX.  MAX DOF INC= -0.1476E-03
     FORCE CONVERGENCE VALUE  =   1.151      CRITERION=  0.9010E-01
     DISP CONVERGENCE VALUE   =  0.1005E-07  CRITERION=  0.2009E-04 <<< CONVERGED
    EQUIL ITER   2 COMPLETED.  NEW TRIANG MATRIX.  MAX DOF INC=  0.1005E-07
     FORCE CONVERGENCE VALUE  =  0.1674E-06  CRITERION=  0.9194E-01 <<< CONVERGED
    >>> SOLUTION CONVERGED AFTER EQUILIBRIUM ITERATION   2
 *** LOAD STEP     8   SUBSTEP     1  COMPLETED.    CUM ITER =     68
 *** TIME =  0.800000E-01     TIME INC =  0.100000E-01
 *** RESPONSE FREQ =  2.193       PERIOD=  0.4560      PTS/CYC =  46.    

 *** AVERAGE DISP INCREMENT ACROSS SOURCE INTERFACE. Fluid Solid Interface (FSIN_1)
     AVERAGE SENDING DISPLACEMENT INCREMENT DX = -0.12469E-07
     AVERAGE SENDING DISPLACEMENT INCREMENT DY = -0.84336E-04
     AVERAGE SENDING DISPLACEMENT INCREMENT DZ = -0.12952E-05

   COUPLING ITERATION. . . . . . . . . . . . . . .     5

 *** FORCE SUM ACROSS TARGET INTERFACE . . . . .Fluid Solid Interface (FSIN_1)
     RECEIVING FORCE FX SUM =  0.73498E-04
     RECEIVING FORCE FY SUM =  0.39094    
     RECEIVING FORCE FZ SUM =  -1.4685    

     FORCE CONVERGENCE VALUE  =   6.800      CRITERION=  0.8221E-01
     DISP CONVERGENCE VALUE   =  0.1449E-03  CRITERION=  0.1969E-04
    EQUIL ITER   1 COMPLETED.  NEW TRIANG MATRIX.  MAX DOF INC= -0.1449E-03
     FORCE CONVERGENCE VALUE  =   1.127      CRITERION=  0.8700E-01
     DISP CONVERGENCE VALUE   =  0.9752E-08  CRITERION=  0.2009E-04 <<< CONVERGED
    EQUIL ITER   2 COMPLETED.  NEW TRIANG MATRIX.  MAX DOF INC=  0.9752E-08
     FORCE CONVERGENCE VALUE  =  0.1596E-06  CRITERION=  0.8878E-01 <<< CONVERGED
    >>> SOLUTION CONVERGED AFTER EQUILIBRIUM ITERATION   2
 *** LOAD STEP     8   SUBSTEP     1  COMPLETED.    CUM ITER =     70
 *** TIME =  0.800000E-01     TIME INC =  0.100000E-01
 *** RESPONSE FREQ =  2.193       PERIOD=  0.4560      PTS/CYC =  46.    

 *** AVERAGE DISP INCREMENT ACROSS SOURCE INTERFACE. Fluid Solid Interface (FSIN_1)
     AVERAGE SENDING DISPLACEMENT INCREMENT DX = -0.12506E-07
     AVERAGE SENDING DISPLACEMENT INCREMENT DY = -0.82240E-04
     AVERAGE SENDING DISPLACEMENT INCREMENT DZ = -0.12675E-05

 >>> COUPLING STEP     8 COMPLETED AFTER COUPLING ITERATION     5

 *** ANSYS - ENGINEERING ANALYSIS SYSTEM  RELEASE Release 19.0     19.0     ***
 DISTRIBUTED ANSYS Mechanical Enterprise                       

 00000000  VERSION=WINDOWS x64   12:43:29  APR 01, 2019 CP=     21.422

 MMM01--Transient (F5)                                                         



                   C O U P L I N G   S T E P   O P T I O N S

   STEP NUMBER . . . . . . . . . . . . . . . . . .     9
   COUPLING ITERATION. . . . . . . . . . . . . . .     1
   TIME AT END OF THIS STEP. . . . . . . . . . . . 0.90000E-01
   AUTOMATIC TIME STEPPING . . . . . . . . . . . .    ON
      STARTING TIME STEP SIZE. . . . . . . . . . . 0.10000E-01
      MINIMUM TIME STEP SIZE . . . . . . . . . . . 0.10000E-01
      MAXIMUM TIME STEP SIZE . . . . . . . . . . . 0.10000E-01


 *** FORCE SUM ACROSS TARGET INTERFACE . . . . .Fluid Solid Interface (FSIN_1)
     RECEIVING FORCE FX SUM =  0.57698E-04
     RECEIVING FORCE FY SUM =   1.6791    
     RECEIVING FORCE FZ SUM =  -1.4174    

     FORCE CONVERGENCE VALUE  =   6.244      CRITERION=  0.8446E-01
     DISP CONVERGENCE VALUE   =  0.1488E-03  CRITERION=  0.2573E-04
    EQUIL ITER   1 COMPLETED.  NEW TRIANG MATRIX.  MAX DOF INC= -0.1488E-03
     FORCE CONVERGENCE VALUE  =   1.191      CRITERION=  0.8184E-01
     DISP CONVERGENCE VALUE   =  0.9859E-08  CRITERION=  0.2626E-04 <<< CONVERGED
    EQUIL ITER   2 COMPLETED.  NEW TRIANG MATRIX.  MAX DOF INC=  0.9859E-08
     FORCE CONVERGENCE VALUE  =  0.1696E-06  CRITERION=  0.8351E-01 <<< CONVERGED
    >>> SOLUTION CONVERGED AFTER EQUILIBRIUM ITERATION   2
 *** LOAD STEP     9   SUBSTEP     1  COMPLETED.    CUM ITER =     72
 *** TIME =  0.900000E-01     TIME INC =  0.100000E-01
 *** RESPONSE FREQ =  1.815       PERIOD=  0.5509      PTS/CYC =  55.    

 *** AVERAGE DISP INCREMENT ACROSS SOURCE INTERFACE. Fluid Solid Interface (FSIN_1)
     AVERAGE SENDING DISPLACEMENT INCREMENT DX = -0.91984E-08
     AVERAGE SENDING DISPLACEMENT INCREMENT DY = -0.81522E-04
     AVERAGE SENDING DISPLACEMENT INCREMENT DZ = -0.13936E-05

   COUPLING ITERATION. . . . . . . . . . . . . . .     2

 *** FORCE SUM ACROSS TARGET INTERFACE . . . . .Fluid Solid Interface (FSIN_1)
     RECEIVING FORCE FX SUM =  0.48218E-04
     RECEIVING FORCE FY SUM =   2.6055    
     RECEIVING FORCE FZ SUM =  -1.3841    

     FORCE CONVERGENCE VALUE  =   6.220      CRITERION=  0.8399E-01
     DISP CONVERGENCE VALUE   =  0.1474E-03  CRITERION=  0.2573E-04
    EQUIL ITER   1 COMPLETED.  NEW TRIANG MATRIX.  MAX DOF INC= -0.1474E-03
     FORCE CONVERGENCE VALUE  =   1.186      CRITERION=  0.8050E-01
     DISP CONVERGENCE VALUE   =  0.9759E-08  CRITERION=  0.2626E-04 <<< CONVERGED
    EQUIL ITER   2 COMPLETED.  NEW TRIANG MATRIX.  MAX DOF INC=  0.9759E-08
     FORCE CONVERGENCE VALUE  =  0.1677E-06  CRITERION=  0.8214E-01 <<< CONVERGED
    >>> SOLUTION CONVERGED AFTER EQUILIBRIUM ITERATION   2
 *** LOAD STEP     9   SUBSTEP     1  COMPLETED.    CUM ITER =     74
 *** TIME =  0.900000E-01     TIME INC =  0.100000E-01
 *** RESPONSE FREQ =  1.815       PERIOD=  0.5509      PTS/CYC =  55.    

 *** AVERAGE DISP INCREMENT ACROSS SOURCE INTERFACE. Fluid Solid Interface (FSIN_1)
     AVERAGE SENDING DISPLACEMENT INCREMENT DX = -0.92134E-08
     AVERAGE SENDING DISPLACEMENT INCREMENT DY = -0.80453E-04
     AVERAGE SENDING DISPLACEMENT INCREMENT DZ = -0.13812E-05

   COUPLING ITERATION. . . . . . . . . . . . . . .     3

 *** FORCE SUM ACROSS TARGET INTERFACE . . . . .Fluid Solid Interface (FSIN_1)
     RECEIVING FORCE FX SUM =  0.43106E-04
     RECEIVING FORCE FY SUM =   2.8702    
     RECEIVING FORCE FZ SUM =  -1.3605    

     FORCE CONVERGENCE VALUE  =   6.221      CRITERION=  0.8357E-01
     DISP CONVERGENCE VALUE   =  0.1472E-03  CRITERION=  0.2573E-04
    EQUIL ITER   1 COMPLETED.  NEW TRIANG MATRIX.  MAX DOF INC= -0.1472E-03
     FORCE CONVERGENCE VALUE  =   1.185      CRITERION=  0.7991E-01
     DISP CONVERGENCE VALUE   =  0.9745E-08  CRITERION=  0.2626E-04 <<< CONVERGED
    EQUIL ITER   2 COMPLETED.  NEW TRIANG MATRIX.  MAX DOF INC=  0.9745E-08
     FORCE CONVERGENCE VALUE  =  0.1664E-06  CRITERION=  0.8154E-01 <<< CONVERGED
    >>> SOLUTION CONVERGED AFTER EQUILIBRIUM ITERATION   2
 *** LOAD STEP     9   SUBSTEP     1  COMPLETED.    CUM ITER =     76
 *** TIME =  0.900000E-01     TIME INC =  0.100000E-01
 *** RESPONSE FREQ =  1.815       PERIOD=  0.5509      PTS/CYC =  55.    

 *** AVERAGE DISP INCREMENT ACROSS SOURCE INTERFACE. Fluid Solid Interface (FSIN_1)
     AVERAGE SENDING DISPLACEMENT INCREMENT DX = -0.92215E-08
     AVERAGE SENDING DISPLACEMENT INCREMENT DY = -0.80136E-04
     AVERAGE SENDING DISPLACEMENT INCREMENT DZ = -0.13733E-05

   COUPLING ITERATION. . . . . . . . . . . . . . .     4

 *** FORCE SUM ACROSS TARGET INTERFACE . . . . .Fluid Solid Interface (FSIN_1)
     RECEIVING FORCE FX SUM =  0.21761E-04
     RECEIVING FORCE FY SUM =   4.3714    
     RECEIVING FORCE FZ SUM =  -1.2778    

     FORCE CONVERGENCE VALUE  =   6.219      CRITERION=  0.8229E-01
     DISP CONVERGENCE VALUE   =  0.1452E-03  CRITERION=  0.2573E-04
    EQUIL ITER   1 COMPLETED.  NEW TRIANG MATRIX.  MAX DOF INC= -0.1452E-03
     FORCE CONVERGENCE VALUE  =   1.177      CRITERION=  0.7747E-01
     DISP CONVERGENCE VALUE   =  0.9622E-08  CRITERION=  0.2626E-04 <<< CONVERGED
    EQUIL ITER   2 COMPLETED.  NEW TRIANG MATRIX.  MAX DOF INC=  0.9622E-08
     FORCE CONVERGENCE VALUE  =  0.1620E-06  CRITERION=  0.7905E-01 <<< CONVERGED
    >>> SOLUTION CONVERGED AFTER EQUILIBRIUM ITERATION   2
 *** LOAD STEP     9   SUBSTEP     1  COMPLETED.    CUM ITER =     78
 *** TIME =  0.900000E-01     TIME INC =  0.100000E-01
 *** RESPONSE FREQ =  1.815       PERIOD=  0.5509      PTS/CYC =  55.    

 *** AVERAGE DISP INCREMENT ACROSS SOURCE INTERFACE. Fluid Solid Interface (FSIN_1)
     AVERAGE SENDING DISPLACEMENT INCREMENT DX = -0.92546E-08
     AVERAGE SENDING DISPLACEMENT INCREMENT DY = -0.78370E-04
     AVERAGE SENDING DISPLACEMENT INCREMENT DZ = -0.13424E-05

   COUPLING ITERATION. . . . . . . . . . . . . . .     5

 *** FORCE SUM ACROSS TARGET INTERFACE . . . . .Fluid Solid Interface (FSIN_1)
     RECEIVING FORCE FX SUM =  0.12494E-04
     RECEIVING FORCE FY SUM =   5.1173    
     RECEIVING FORCE FZ SUM =  -1.2332    

     FORCE CONVERGENCE VALUE  =   6.234      CRITERION=  0.8159E-01
     DISP CONVERGENCE VALUE   =  0.1442E-03  CRITERION=  0.2573E-04
    EQUIL ITER   1 COMPLETED.  NEW TRIANG MATRIX.  MAX DOF INC= -0.1442E-03
     FORCE CONVERGENCE VALUE  =   1.174      CRITERION=  0.7618E-01
     DISP CONVERGENCE VALUE   =  0.9560E-08  CRITERION=  0.2626E-04 <<< CONVERGED
    EQUIL ITER   2 COMPLETED.  NEW TRIANG MATRIX.  MAX DOF INC=  0.9560E-08
     FORCE CONVERGENCE VALUE  =  0.1595E-06  CRITERION=  0.7774E-01 <<< CONVERGED
    >>> SOLUTION CONVERGED AFTER EQUILIBRIUM ITERATION   2
 *** LOAD STEP     9   SUBSTEP     1  COMPLETED.    CUM ITER =     80
 *** TIME =  0.900000E-01     TIME INC =  0.100000E-01
 *** RESPONSE FREQ =  1.815       PERIOD=  0.5509      PTS/CYC =  55.    

 *** AVERAGE DISP INCREMENT ACROSS SOURCE INTERFACE. Fluid Solid Interface (FSIN_1)
     AVERAGE SENDING DISPLACEMENT INCREMENT DX = -0.92697E-08
     AVERAGE SENDING DISPLACEMENT INCREMENT DY = -0.77491E-04
     AVERAGE SENDING DISPLACEMENT INCREMENT DZ = -0.13264E-05

 >>> COUPLING STEP     9 COMPLETED AFTER COUPLING ITERATION     5

 *** ANSYS - ENGINEERING ANALYSIS SYSTEM  RELEASE Release 19.0     19.0     ***
 DISTRIBUTED ANSYS Mechanical Enterprise                       

 00000000  VERSION=WINDOWS x64   12:43:38  APR 01, 2019 CP=     24.594

 MMM01--Transient (F5)                                                         



                   C O U P L I N G   S T E P   O P T I O N S

   STEP NUMBER . . . . . . . . . . . . . . . . . .    10
   COUPLING ITERATION. . . . . . . . . . . . . . .     1
   TIME AT END OF THIS STEP. . . . . . . . . . . . 0.10000    
   AUTOMATIC TIME STEPPING . . . . . . . . . . . .    ON
      STARTING TIME STEP SIZE. . . . . . . . . . . 0.10000E-01
      MINIMUM TIME STEP SIZE . . . . . . . . . . . 0.10000E-01
      MAXIMUM TIME STEP SIZE . . . . . . . . . . . 0.10000E-01


 *** FORCE SUM ACROSS TARGET INTERFACE . . . . .Fluid Solid Interface (FSIN_1)
     RECEIVING FORCE FX SUM =  0.59682E-05
     RECEIVING FORCE FY SUM =   5.7199    
     RECEIVING FORCE FZ SUM =  -1.2025    

     FORCE CONVERGENCE VALUE  =   4.857      CRITERION=  0.7416E-01
     DISP CONVERGENCE VALUE   =  0.1266E-03  CRITERION=  0.3055E-04
    EQUIL ITER   1 COMPLETED.  NEW TRIANG MATRIX.  MAX DOF INC= -0.1266E-03
     FORCE CONVERGENCE VALUE  =   1.166      CRITERION=  0.6619E-01
     DISP CONVERGENCE VALUE   =  0.8912E-08  CRITERION=  0.3117E-04 <<< CONVERGED
[...]
     AVERAGE SENDING DISPLACEMENT INCREMENT DY = -0.21605E-04
     AVERAGE SENDING DISPLACEMENT INCREMENT DZ =  0.21624E-06

   COUPLING ITERATION. . . . . . . . . . . . . . .     2

 *** FORCE SUM ACROSS TARGET INTERFACE . . . . .Fluid Solid Interface (FSIN_1)
     RECEIVING FORCE FX SUM =  0.65085E-04
     RECEIVING FORCE FY SUM =  0.46367E-01
     RECEIVING FORCE FZ SUM =  -1.3340    

     FORCE CONVERGENCE VALUE  =   3.566      CRITERION=  0.5024E-01
     DISP CONVERGENCE VALUE   =  0.1423E-03  CRITERION=  0.2045E-03 <<< CONVERGED
    EQUIL ITER   1 COMPLETED.  NEW TRIANG MATRIX.  MAX DOF INC= -0.1423E-03
     FORCE CONVERGENCE VALUE  =  0.8780      CRITERION=  0.5201E-01
     DISP CONVERGENCE VALUE   =  0.1038E-07  CRITERION=  0.2087E-03 <<< CONVERGED
    EQUIL ITER   2 COMPLETED.  NEW TRIANG MATRIX.  MAX DOF INC=  0.1038E-07
     FORCE CONVERGENCE VALUE  =  0.9846E-07  CRITERION=  0.5307E-01 <<< CONVERGED
    >>> SOLUTION CONVERGED AFTER EQUILIBRIUM ITERATION   2
 *** LOAD STEP    99   SUBSTEP     1  COMPLETED.    CUM ITER =    472
 *** TIME =  0.990000         TIME INC =  0.100000E-01
 *** RESPONSE FREQ =  2.771       PERIOD=  0.3609      PTS/CYC =  36.    

 *** AVERAGE DISP INCREMENT ACROSS SOURCE INTERFACE. Fluid Solid Interface (FSIN_1)
     AVERAGE SENDING DISPLACEMENT INCREMENT DX = -0.34389E-08
     AVERAGE SENDING DISPLACEMENT INCREMENT DY = -0.21592E-04
     AVERAGE SENDING DISPLACEMENT INCREMENT DZ =  0.21654E-06

 >>> COUPLING STEP    99 COMPLETED AFTER COUPLING ITERATION     2

 *** ANSYS - ENGINEERING ANALYSIS SYSTEM  RELEASE Release 19.0     19.0     ***
 DISTRIBUTED ANSYS Mechanical Enterprise                       

 00000000  VERSION=WINDOWS x64   12:50:43  APR 01, 2019 CP=    156.875

 MMM01--Transient (F5)                                                         



                   C O U P L I N G   S T E P   O P T I O N S

   STEP NUMBER . . . . . . . . . . . . . . . . . .   100
   COUPLING ITERATION. . . . . . . . . . . . . . .     1
   TIME AT END OF THIS STEP. . . . . . . . . . . .  1.0000    
   AUTOMATIC TIME STEPPING . . . . . . . . . . . .    ON
      STARTING TIME STEP SIZE. . . . . . . . . . . 0.10000E-01
      MINIMUM TIME STEP SIZE . . . . . . . . . . . 0.10000E-01
      MAXIMUM TIME STEP SIZE . . . . . . . . . . . 0.10000E-01


 *** FORCE SUM ACROSS TARGET INTERFACE . . . . .Fluid Solid Interface (FSIN_1)
     RECEIVING FORCE FX SUM =  0.64812E-04
     RECEIVING FORCE FY SUM =  0.42144E-01
     RECEIVING FORCE FZ SUM =  -1.3341    

     FORCE CONVERGENCE VALUE  =   3.419      CRITERION=  0.5097E-01
     DISP CONVERGENCE VALUE   =  0.1556E-03  CRITERION=  0.2124E-03 <<< CONVERGED
    EQUIL ITER   1 COMPLETED.  NEW TRIANG MATRIX.  MAX DOF INC= -0.1556E-03
     FORCE CONVERGENCE VALUE  =  0.9053      CRITERION=  0.5316E-01
     DISP CONVERGENCE VALUE   =  0.1046E-07  CRITERION=  0.2168E-03 <<< CONVERGED
    EQUIL ITER   2 COMPLETED.  NEW TRIANG MATRIX.  MAX DOF INC=  0.1046E-07
     FORCE CONVERGENCE VALUE  =  0.9890E-07  CRITERION=  0.5425E-01 <<< CONVERGED
    >>> SOLUTION CONVERGED AFTER EQUILIBRIUM ITERATION   2
 *** LOAD STEP   100   SUBSTEP     1  COMPLETED.    CUM ITER =    474
 *** TIME =   1.00000         TIME INC =  0.100000E-01
 *** RESPONSE FREQ =  2.505       PERIOD=  0.3992      PTS/CYC =  40.    

 *** AVERAGE DISP INCREMENT ACROSS SOURCE INTERFACE. Fluid Solid Interface (FSIN_1)
     AVERAGE SENDING DISPLACEMENT INCREMENT DX = -0.24398E-08
     AVERAGE SENDING DISPLACEMENT INCREMENT DY = -0.21493E-04
     AVERAGE SENDING DISPLACEMENT INCREMENT DZ =  0.14097E-06

   COUPLING ITERATION. . . . . . . . . . . . . . .     2

 *** FORCE SUM ACROSS TARGET INTERFACE . . . . .Fluid Solid Interface (FSIN_1)
     RECEIVING FORCE FX SUM =  0.62794E-04
     RECEIVING FORCE FY SUM =  0.57914E-01
     RECEIVING FORCE FZ SUM =  -1.3341    

     FORCE CONVERGENCE VALUE  =   3.419      CRITERION=  0.5098E-01
     DISP CONVERGENCE VALUE   =  0.1556E-03  CRITERION=  0.2124E-03 <<< CONVERGED
    EQUIL ITER   1 COMPLETED.  NEW TRIANG MATRIX.  MAX DOF INC= -0.1556E-03
     FORCE CONVERGENCE VALUE  =  0.9056      CRITERION=  0.5316E-01
     DISP CONVERGENCE VALUE   =  0.1047E-07  CRITERION=  0.2168E-03 <<< CONVERGED
    EQUIL ITER   2 COMPLETED.  NEW TRIANG MATRIX.  MAX DOF INC=  0.1047E-07
     FORCE CONVERGENCE VALUE  =  0.9891E-07  CRITERION=  0.5425E-01 <<< CONVERGED
    >>> SOLUTION CONVERGED AFTER EQUILIBRIUM ITERATION   2
 *** LOAD STEP   100   SUBSTEP     1  COMPLETED.    CUM ITER =    476
 *** TIME =   1.00000         TIME INC =  0.100000E-01
 *** RESPONSE FREQ =  2.505       PERIOD=  0.3992      PTS/CYC =  40.    

 *** AVERAGE DISP INCREMENT ACROSS SOURCE INTERFACE. Fluid Solid Interface (FSIN_1)
     AVERAGE SENDING DISPLACEMENT INCREMENT DX = -0.24427E-08
     AVERAGE SENDING DISPLACEMENT INCREMENT DY = -0.21474E-04
     AVERAGE SENDING DISPLACEMENT INCREMENT DZ =  0.14141E-06

 >>> COUPLING STEP   100 COMPLETED AFTER COUPLING ITERATION     2
 *************** Write FE CONNECTORS *********

 WRITE OUT CONSTRAINT EQUATIONS TO FILE= file.ce                                                                                                                                                                                                                                                             
 ****************************************************
 *************** FINISHED SOLVE FOR LS 1 *************

 *GET  _WALLASOL  FROM  ACTI  ITEM=TIME WALL  VALUE=  12.8461111    

 PRINTOUT RESUMED BY /GOP

 *GET  _PCGITER  FROM  ACTI  ITEM=SOLU CGIT  VALUE=  174.000000    

 FINISH SOLUTION PROCESSING


 ***** ROUTINE COMPLETED *****  CP =       158.438



 *** ANSYS - ENGINEERING ANALYSIS SYSTEM  RELEASE Release 19.0     19.0     ***
 DISTRIBUTED ANSYS Mechanical Enterprise                       

 00000000  VERSION=WINDOWS x64   12:50:46  APR 01, 2019 CP=    158.453

 MMM01--Transient (F5)                                                         



          ***** ANSYS RESULTS INTERPRETATION (POST1) *****

 *** NOTE ***                            CP =     158.453   TIME= 12:50:46
 Reading results into the database (SET command) will update the current 
 displacement and force boundary conditions in the database with the     
 values from the results file for that load set.  Note that any          
 subsequent solutions will use these values unless action is taken to    
 either SAVE the current values or not overwrite them (/EXIT,NOSAVE).    

 /INPUT FILE= D:\Data\post.txt  LINE=       0

 *** WARNING ***                         CP =     158.453   TIME= 12:50:46
 /BATCH is not a recognized POST1 command, abbreviation, or macro.       
  This command will be ignored.                                          

 *** WARNING ***                         CP =     158.453   TIME= 12:50:46
 /CONFIG is not a recognized POST1 command, abbreviation, or macro.      
  This command will be ignored.                                          

 *GET  _WALLSTRT  FROM  ACTI  ITEM=TIME WALL  VALUE=  12.8461111    

 PARAMETER _WB_POST_RUN =     1.000000000    
 You have already entered the general postprocessor (POST1).             


 USE LAST SUBSTEP ON RESULT FILE  FOR LOAD CASE 0 

 SET COMMAND GOT LOAD STEP=   100  SUBSTEP=     1  CUMULATIVE ITERATION=   476
   TIME/FREQUENCY=  1.0000    
 TITLE= MMM01--Transient (F5)                                                   

 UPDATE NODE COORDINATES WITH DISPLACEMENT FACTOR=  1.0000    

 EXIT THE ANSYS POST1 DATABASE PROCESSOR


 ***** ROUTINE COMPLETED *****  CP =       158.453



 *** ANSYS - ENGINEERING ANALYSIS SYSTEM  RELEASE Release 19.0     19.0     ***
 DISTRIBUTED ANSYS Mechanical Enterprise                       

 00000000  VERSION=WINDOWS x64   12:50:46  APR 01, 2019 CP=    158.453

 MMM01--Transient (F5)                                                         



          ***** ANSYS ANALYSIS DEFINITION (PREP7) *****

 *** ANSYS GLOBAL STATUS *** 

 TITLE = MMM01--Transient (F5)                                                 
 ANALYSIS TYPE =  TRANSIENT            
 NUMBER OF ELEMENT TYPES =      1
       300 ELEMENTS CURRENTLY SELECTED.  MAX ELEMENT NUMBER =         300
      2310 NODES CURRENTLY SELECTED.     MAX NODE NUMBER =           2310

 WRITE ANSYS DATABASE AS AN ANSYS INPUT FILE: D:\Data\beamt01.cdb                                                                                                                                                                                                                                                 


 ***** ROUTINE COMPLETED *****  CP =       158.547



 *** ANSYS - ENGINEERING ANALYSIS SYSTEM  RELEASE Release 19.0     19.0     ***
 DISTRIBUTED ANSYS Mechanical Enterprise                       

 00000000  VERSION=WINDOWS x64   12:50:46  APR 01, 2019 CP=    158.562

 MMM01--Transient (F5)                                                         




          ***** TIME-HISTORY POSTPROCESSOR (POST26) *****

 ALL POST26 SPECIFICATIONS ARE RESET TO INITIAL DEFAULTS

 *** WARNING ***                         CP =     158.562   TIME= 12:50:46
 MPDATA is not a recognized POST26 command, abbreviation, or macro.      
  This command will be ignored.                                          

 *** WARNING ***                         CP =     158.562   TIME= 12:50:46
 Display device has not yet been specified with /SHOW.  Command ignored. 

 MAXIMUM NUMBER OF VARIABLES=200

 VARIABLE191 IS ITEM= NCMI  COMP=       NAME= NCMI     FROM LOAD SET SUMMARY 

 STORAGE COMPLETE FOR    100 DATA POINTS 

         SUMMARY OF VARIABLES STORED THIS STEP AND EXTREME VALUES
 VARI TYPE    IDENTIFIERS   NAME     MINIMUM    AT TIME     MAXIMUM    AT TIME

 191 SOLU     0 NCMI      NCMI       10.00      0.1000E-001  476.0       1.000     

 VARIABLE 191 IS A FILL FROM    1 TO  100 BY    1
  STARTING WITH  1.000000      AND INCREMENTING BY  1.000000    

 VARIABLE 191  IS THE REAL PART OF
     (  1.0000    ,  0.0000    )  TIMES VARIABLE 191
 RESULT VARIABLE NAME = 191     

 VARIABLE  2  IS AT NODE    1050  ITEM= U    COMP= Y     NAME= UY_2    

 STORAGE COMPLETE FOR    100 DATA POINTS 

         SUMMARY OF VARIABLES STORED THIS STEP AND EXTREME VALUES
 VARI TYPE    IDENTIFIERS   NAME     MINIMUM    AT TIME     MAXIMUM    AT TIME

   2 NSOL  1050 UY        UY_2     -0.4162E-002  1.000      0.6279E-003 0.2000     

 X VARIABLE=  1

 *** WARNING ***                         CP =     158.562   TIME= 12:50:46
 No new variables defined to store.                                      

 *** ANSYS - ENGINEERING ANALYSIS SYSTEM  RELEASE Release 19.0     19.0     ***
 DISTRIBUTED ANSYS Mechanical Enterprise                       

 00000000  VERSION=WINDOWS x64   12:50:46  APR 01, 2019 CP=    158.562

 MMM01--Transient (F5)                                                         



          ***** ANSYS POST26 VARIABLE LISTING *****


    TIME       1050 UY      
                  UY_2    
   0.10000E-01  0.204739E-005
   0.20000E-01  0.877638E-005
   0.30000E-01  0.202326E-004
   0.40000E-01  0.349609E-004
   0.50000E-01  0.495324E-004
   0.60000E-01  0.583657E-004
   0.70000E-01  0.566698E-004
   0.80000E-01  0.423644E-004
   0.90000E-01  0.174384E-004
   0.10000     -0.116663E-004
   0.11000     -0.370536E-004
   0.12000     -0.527715E-004
   0.13000     -0.535368E-004
   0.14000     -0.299163E-004
   0.15000      0.308411E-004
   0.16000      0.136237E-003
   0.17000      0.279050E-003
   0.18000      0.433159E-003
   0.19000      0.560597E-003
   0.20000      0.627938E-003
   0.21000      0.619105E-003
   0.22000      0.534795E-003
   0.23000      0.386301E-003
   0.24000      0.193942E-003
   0.25000     -0.148309E-004
   0.26000     -0.211974E-003
   0.27000     -0.375455E-003
   0.28000     -0.492200E-003
   0.29000     -0.557623E-003
   0.30000     -0.575158E-003
   0.31000     -0.556780E-003
   0.32000     -0.519617E-003
   0.33000     -0.479399E-003
   0.34000     -0.448495E-003
   0.35000     -0.437912E-003
   0.36000     -0.455844E-003
   0.37000     -0.502318E-003
   0.38000     -0.566421E-003
   0.39000     -0.629629E-003
   0.40000     -0.672814E-003
   0.41000     -0.683007E-003
   0.42000     -0.657162E-003
   0.43000     -0.602153E-003
   0.44000     -0.532318E-003
   0.45000     -0.465796E-003
   0.46000     -0.420063E-003
   0.47000     -0.407710E-003
   0.48000     -0.433869E-003
   0.49000     -0.495667E-003
   0.50000     -0.583199E-003

 *** ANSYS - ENGINEERING ANALYSIS SYSTEM  RELEASE Release 19.0     19.0     ***
 DISTRIBUTED ANSYS Mechanical Enterprise                       

 00000000  VERSION=WINDOWS x64   12:50:46  APR 01, 2019 CP=    158.578

 MMM01--Transient (F5)                                                         



          ***** ANSYS POST26 VARIABLE LISTING *****


    TIME       1050 UY      
                  UY_2    
   0.51000     -0.681705E-003
   0.52000     -0.774782E-003
   0.53000     -0.847744E-003
   0.54000     -0.889777E-003
   0.55000     -0.894732E-003
   0.56000     -0.861659E-003
   0.57000     -0.795725E-003
   0.58000     -0.708400E-003
   0.59000     -0.615508E-003
   0.60000     -0.533376E-003
   0.61000     -0.474669E-003
   0.62000     -0.445471E-003
   0.63000     -0.444439E-003
   0.64000     -0.464058E-003
   0.65000     -0.493382E-003
   0.66000     -0.521384E-003
   0.67000     -0.540022E-003
   0.68000     -0.546311E-003
   0.69000     -0.542945E-003
   0.70000     -0.537487E-003
   0.71000     -0.540413E-003
   0.72000     -0.562578E-003
   0.73000     -0.612768E-003
   0.74000     -0.695992E-003
   0.75000     -0.812721E-003
   0.76000     -0.958836E-003
   0.77000     -0.112607E-002
   0.78000     -0.130301E-002
   0.79000     -0.147689E-002
   0.80000     -0.163605E-002
   0.81000     -0.177241E-002
   0.82000     -0.188329E-002
   0.83000     -0.197179E-002
   0.84000     -0.204588E-002
   0.85000     -0.211632E-002
   0.86000     -0.219407E-002
   0.87000     -0.228785E-002
   0.88000     -0.240240E-002
   0.89000     -0.253780E-002
   0.90000     -0.268991E-002
   0.91000     -0.285185E-002
   0.92000     -0.301585E-002
   0.93000     -0.317524E-002
   0.94000     -0.332585E-002
   0.95000     -0.346671E-002
   0.96000     -0.359997E-002
   0.97000     -0.373027E-002
   0.98000     -0.386361E-002
   0.99000     -0.400592E-002
    1.0000     -0.416153E-002

 Set Encoding of XML File to:ISO-8859-1

 Set Output of XML File to:
     PARM,     ,     ,     ,     ,     ,     ,     ,     ,     ,     ,     ,
         ,     ,     ,     ,     ,     ,     ,

 DATABASE WRITTEN ON FILE  parm.xml                                                                                                                                                                                                                                                            


 ***** ROUTINE COMPLETED *****  CP =       158.578



 PRINTOUT RESUMED BY /GOP

 *GET  _WALLDONE  FROM  ACTI  ITEM=TIME WALL  VALUE=  12.8461111    

 PARAMETER _TOTALTIM =     0.000000000    

 Set Encoding of XML File to:ISO-8859-1

 Set Output of XML File to:
     PARM,     ,     ,     ,     ,     ,     ,     ,     ,     ,     ,     ,
         ,     ,     ,     ,     ,     ,     ,

 DATABASE WRITTEN ON FILE  parm.xml                                                                                                                                                                                                                                                            

 PRINTOUT RESUMED BY /GOP

 *GET  _WALLDONE  FROM  ACTI  ITEM=TIME WALL  VALUE=  12.8461111    

 PARAMETER _PREPTIME =    -499.0000000    

 PARAMETER _SOLVTIME =     499.0000000    

 PARAMETER _POSTTIME =     0.000000000    

 PARAMETER _TOTALTIM =     0.000000000    

 EXIT ANSYS WITHOUT SAVING DATABASE


 NUMBER OF WARNING MESSAGES ENCOUNTERED=          6
 NUMBER OF ERROR   MESSAGES ENCOUNTERED=          0

+--------- D I S T R I B U T E D   A N S Y S   S T A T I S T I C S ------------+

Release: Release 19.0       Build: 19.0       Update: UP20171214   Platform: WINDOWS x64 
Date Run: 04/01/2019   Time: 12:50     Process ID: 17960
Operating System: Windows 10  (Build: 17134)

Processor Model:         Intel(R) Core(TM) i7-3770 CPU @ 3.40GHz

Compiler: Intel(R) FORTRAN Compiler Version 15.0.7  (Build: 20160518)
          Intel(R) C/C++ Compiler Version 15.0.7  (Build: 20160518)
          Intel(R) Math Kernel Library Version 2017.0.2 Product Build 20170126

Number of machines requested            :    1
Total number of cores available         :    8
Number of physical cores available      :    4
Number of processes requested           :    2
Number of threads per process requested :    1
Total number of cores requested         :    2 (Distributed Memory Parallel)               
MPI Type: INTELMPI
MPI Version: Intel(R) MPI Library 2017 Update 3 for Windows* OS


GPU Acceleration: Not Requested

Job Name: file0
Input File: dummy.dat

  Core                Machine Name   Working Directory
 -----------------------------------------------------
     0             DESKTOP-2A0V35D   D:\Data\Research\Publications\SMO\ANSYS files\MMM2\_ProjectScratch\Scr8FF4
     1             DESKTOP-2A0V35D   D:\Data\Research\Publications\SMO\ANSYS files\MMM2\_ProjectScratch\Scr8FF4
 
Latency time from master to core     1 =    1.841 microseconds
 
Communication speed from master to core     1 =  3196.81 MB/sec

Total CPU time for main thread                    :      158.7 seconds
Total CPU time summed for all threads             :      158.6 seconds

Elapsed time spent pre-processing model (/PREP7)  :        0.1 seconds
Elapsed time spent solution - preprocessing       :        0.0 seconds
Elapsed time spent computing solution             :      499.1 seconds
Elapsed time spent solution - postprocessing      :        0.2 seconds
Elapsed time spent post-processing model (/POST1) :        0.0 seconds
Elapsed time spent post-processing model (/POST26):        0.0 seconds
 
Equation solver used                              :            PCG (symmetric)
Equation solver computational rate                :     6431.0 Mflops

Maximum total memory used                         :       94.0 MB
Maximum total memory allocated                    :     3136.0 MB
Total physical memory available                   :         16 GB

+------ E N D   D I S T R I B U T E D   A N S Y S   S T A T I S T I C S -------+


 *---------------------------------------------------------------------------*
 |                                                                           |
 |                       DISTRIBUTED ANSYS RUN COMPLETED                     |
 |                                                                           |
 |---------------------------------------------------------------------------|
 |                                                                           |
 | Ansys Release 19.0          Build 19.0         UP20171214     WINDOWS x64 |
 |                                                                           |
 |---------------------------------------------------------------------------|
 |                                                                           |
 | Database Requested(-db)  1024 MB    Scratch Memory Requested      1024 MB |
 | Maximum Database Used       3 MB    Maximum Scratch Memory Used     47 MB |
 |                                                                           |
 |---------------------------------------------------------------------------|
 |                                                                           |
 |        CP Time      (sec) =        158.594       Time  =  12:50:46        |
 |        Elapsed Time (sec) =        501.000       Date  =  04/01/2019      |
 |                                                                           |
 *---------------------------------------------------------------------------*
