
 ANSYS Mechanical Enterprise                       


 *------------------------------------------------------------------*
 |                                                                  |
 |   W E L C O M E   T O   T H E   A N S Y S (R)  P R O G R A M     |
 |                                                                  |
 *------------------------------------------------------------------*




 ***************************************************************
 *            ANSYS Release 19.0     LEGAL NOTICES             *
 ***************************************************************
 *                                                             *
 * Copyright 1971-2017 ANSYS, Inc.  All rights reserved.       *
 * Unauthorized use, distribution or duplication is            *
 * prohibited.                                                 *
 *                                                             *
 * Ansys is a registered trademark of ANSYS, Inc. or its       *
 * subsidiaries in the United States or other countries.       *
 * See the ANSYS, Inc. online documentation or the ANSYS, Inc. *
 * documentation CD or online help for the complete Legal      *
 * Notice.                                                     *
 *                                                             *
 ***************************************************************
 *                                                             *
 * THIS ANSYS SOFTWARE PRODUCT AND PROGRAM DOCUMENTATION       *
 * INCLUDE TRADE SECRETS AND CONFIDENTIAL AND PROPRIETARY      *
 * PRODUCTS OF ANSYS, INC., ITS SUBSIDIARIES, OR LICENSORS.    *
 * The software products and documentation are furnished by    *
 * ANSYS, Inc. or its subsidiaries under a software license    *
 * agreement that contains provisions concerning               *
 * non-disclosure, copying, length and nature of use,          *
 * compliance with exporting laws, warranties, disclaimers,    *
 * limitations of liability, and remedies, and other           *
 * provisions.  The software products and documentation may be *
 * used, disclosed, transferred, or copied only in accordance  *
 * with the terms and conditions of that software license      *
 * agreement.                                                  *
 *                                                             *
 * ANSYS, Inc. is a UL registered                              *
 * ISO 9001:2008 company.                                      *
 *                                                             *
 ***************************************************************
 *                                                             *
 * This product is subject to U.S. laws governing export and   *
 * re-export.                                                  *
 *                                                             *
 * For U.S. Government users, except as specifically granted   *
 * by the ANSYS, Inc. software license agreement, the use,     *
 * duplication, or disclosure by the United States Government  *
 * is subject to restrictions stated in the ANSYS, Inc.        *
 * software license agreement and FAR 12.212 (for non-DOD      *
 * licenses).                                                  *
 *                                                             *
 ***************************************************************

 Release 19.0
     
 Point Releases and Patches installed:   
     
 ANSYS, Inc. Products Release 19.0   
 SpaceClaim Release 19.0 
 AIM Release 19.0
 Autodyn Release 19.0
 LS-DYNA Release 19.0
 CFX (includes CFD-Post) Release 19.0
 Chemkin Release 19.0
 EnSight Release 19.0
 FENSAP-ICE Release 19.0 
 Fluent (includes CFD-Post) Release 19.0 
 Forte Release 19.0  
 Polyflow (includes CFD-Post) Release 19.0   
 TurboGrid Release 19.0  
 ICEM CFD Release 19.0   
 Aqwa Release 19.0   
 Mechanical Products Release 19.0
 Icepak (includes CFD-Post) Release 19.0 
 ACIS Geometry Interface Release 19.0
 AutoCAD Geometry Interface Release 19.0 
 Catia, Version 4 Geometry Interface Release 19.0
 Catia, Version 6 Geometry Interface Release 19.0
 Creo Elements/Direct Modeling Geometry Interface Release 19.0   
 Creo Parametric Geometry Interface Release 19.0 
 Inventor Geometry Interface Release 19.0
 JTOpen Geometry Interface Release 19.0  
 NX Geometry Interface Release 19.0  
 Parasolid Geometry Interface  Release 19.0  
 Solid Edge Geometry Interface Release 19.0  
 SOLIDWORKS Geometry Interface Release 19.0  
 ANSYS, Inc. License Manager Release 19.0


          *****  ANSYS COMMAND LINE ARGUMENTS  *****
  BATCH MODE REQUESTED (-b)    = NOLIST
  INPUT FILE COPY MODE (-c)    = COPY
  DISTRIBUTED MEMORY PARALLEL REQUESTED
       2 PARALLEL PROCESSES REQUESTED WITH SINGLE THREAD PER PROCESS
    TOTAL OF     2 CORES REQUESTED
  MPI OPTION                   = INTELMPI
  INPUT FILE NAME              = D:\Data\Research\Publications\SMO\ANSYS files\MMM2\_ProjectScratch\Scr4672\dummy.dat
  OUTPUT FILE NAME             = D:\Data\Research\Publications\SMO\ANSYS files\MMM2\_ProjectScratch\Scr4672\solve.out
  START-UP FILE MODE           = NOREAD
  STOP FILE MODE               = NOREAD
  CONNECTION TO COUPLING SERVER REQUESTED
    SYSTEM NAME                = Solution 1
    HOST NAME                  = DESKTOP-2A0V35D
    SERVER PORT REQUESTED      = 53281       

 RELEASE= Release 19.0         BUILD= 19.0      UP20171214   VERSION=WINDOWS x64 
 CURRENT JOBNAME=file0  23:40:46  APR 01, 2019 CP=      0.219


MAPDL is connecting to the system coupling service on DESKTOP-2A0V35D through port  53281 ...
   ... connected

 PARAMETER _DS_PROGRESS =     999.0000000    

 /INPUT FILE= ds.dat  LINE=       0



 *** NOTE ***                            CP =       0.344   TIME= 23:40:47
 The /CONFIG,NOELDB command is not valid in a Distributed ANSYS          
 solution.  Command is ignored.                                          

 *GET  _WALLSTRT  FROM  ACTI  ITEM=TIME WALL  VALUE=  23.6797222    

 TITLE= 
 MMM01--Transient (F5)                                                         


 SET PARAMETER DIMENSIONS ON  _WB_PROJECTSCRATCH_DIR
  TYPE=STRI  DIMENSIONS=      248        1        1

 PARAMETER _WB_PROJECTSCRATCH_DIR(1) = D:\Data\Research\Publications\SMO\ANSYS files\MMM2\_ProjectScratch\Scr4672\

 SET PARAMETER DIMENSIONS ON  _WB_SOLVERFILES_DIR
  TYPE=STRI  DIMENSIONS=      248        1        1

 PARAMETER _WB_SOLVERFILES_DIR(1) = D:\Data\Research\Publications\SMO\ANSYS files\MMM2\MMM01_files\dp0\SYS\MECH\

 SET PARAMETER DIMENSIONS ON  _WB_USERFILES_DIR
  TYPE=STRI  DIMENSIONS=      248        1        1

 PARAMETER _WB_USERFILES_DIR(1) = D:\Data\Research\Publications\SMO\ANSYS files\MMM2\MMM01_files\user_files\
 --- Data in consistent MKS units. See Solving Units in the help system for more

 MKS UNITS SPECIFIED FOR INTERNAL    
  LENGTH        (l)  = METER (M)
  MASS          (M)  = KILOGRAM (KG)
  TIME          (t)  = SECOND (SEC)
  TEMPERATURE   (T)  = CELSIUS (C)
  TOFFSET            = 273.0
  CHARGE        (Q)  = COULOMB
  FORCE         (f)  = NEWTON (N) (KG-M/SEC2)
  HEAT               = JOULE (N-M)

  PRESSURE           = PASCAL (NEWTON/M**2)
  ENERGY        (W)  = JOULE (N-M)
  POWER         (P)  = WATT (N-M/SEC)
  CURRENT       (i)  = AMPERE (COULOMBS/SEC)
  CAPACITANCE   (C)  = FARAD
  INDUCTANCE    (L)  = HENRY
  MAGNETIC FLUX      = WEBER
  RESISTANCE    (R)  = OHM
  ELECTRIC POTENTIAL = VOLT

 INPUT  UNITS ARE ALSO SET TO MKS 

 *** ANSYS - ENGINEERING ANALYSIS SYSTEM  RELEASE Release 19.0     19.0     ***
 DISTRIBUTED ANSYS Mechanical Enterprise                       

 00000000  VERSION=WINDOWS x64   23:40:47  APR 01, 2019 CP=      0.359

 MMM01--Transient (F5)                                                         



          ***** ANSYS ANALYSIS DEFINITION (PREP7) *****
 *********** Nodes for the whole assembly ***********
 *********** Elements for Body 1 "Plate" ***********
 *********** Send User Defined Coordinate System(s) ***********
 *********** Set Reference Temperature ***********
 *********** Send Materials ***********
 *********** Send Named Selection as Node Component ***********
 *********** Send Named Selection as Node Component ***********
 *********** Send Named Selection as Node Component ***********
 *********** Send Named Selection as Node Component ***********
 *********** Send Named Selection as Node Component ***********
 *********** Send Named Selection as Element Component ***********
 *********** Fixed Supports ***********
 *********** Create FSI Flags ***********


 ***** ROUTINE COMPLETED *****  CP =         0.391


 --- Number of total nodes = 2570
 --- Number of contact elements = 0
 --- Number of spring elements = 0
 --- Number of bearing elements = 0
 --- Number of solid elements = 330
 --- Number of condensed parts = 0
 --- Number of total elements = 330

 *GET  _WALLBSOL  FROM  ACTI  ITEM=TIME WALL  VALUE=  23.6797222    
 ****************************************************************************
 *************************    SOLUTION       ********************************
 ****************************************************************************

 *****  ANSYS SOLUTION ROUTINE  *****


 PERFORM A TRANSIENT ANALYSIS
  THIS WILL BE A NEW ANALYSIS

 LARGE DEFORMATION ANALYSIS

 STEP BOUNDARY CONDITION KEY= 1

 USE PRECONDITIONED CONJUGATE GRADIENT SOLVER
  CONVERGENCE TOLERANCE = 1.00000E-08
  MAXIMUM ITERATION     = NumNode*DofPerNode*  1.0000    

 CONTACT INFORMATION PRINTOUT LEVEL       1

 SUPPRESS THE FOLLOWING ITEMS FROM BEING WRITTEN TO THE RESULTS FILE:
  NONE                                                                                          

 DO NOT COMBINE ELEMENT MATRIX FILES (.emat) AFTER DISTRIBUTED PARALLEL SOLUTION

 DO NOT COMBINE ELEMENT SAVE DATA FILES (.esav) AFTER DISTRIBUTED PARALLEL SOLUTION

 WRITE ALL COMPONENTS TO THE COMPONENTS FILE.
 START WRITING AT THE BEGINNING OF FILE file.cm

 COMPONENTS WERE WRITTEN TO FILE= file.cm

 PERFORM A FULL TRANSIENT ANALYSIS
  USING HHT ALGORITHM

 USE AMPLITUDE DECAY FACTOR FOR SECOND ORDER TRANSIENT PARAMETERS
   GAMMA= 0.1000      (ALPHA= 0.3025      DELTA= 0.6000      ALPHAF= 0.1000      ALPHAM=  0.000    )

 NLDIAG: Nonlinear diagnostics CONT option is set to ON. 
         Writing frequency : each ITERATION.

 A NEGATIVE FILM COEFFICIENT IS USED AS IS.

 DEFINE RESTART CONTROL FOR LOADSTEP ALL 
 AT FREQUENCY OF LAST AND NUMBER FOR OVERWRITE IS    0

 DELETE RESTART FILES OF ENDSTEP
 ****************************************************
 ******************* SOLVE FOR LS 1 OF 1 ****************

 PRINTOUT RESUMED BY /GOP

 USE AUTOMATIC TIME STEPPING THIS LOAD STEP

 USE INITIAL TIME STEP SIZE OF 0.1000000E-01 FOR ALL  DEGREES OF FREEDOM
 FOR AUTOMATIC TIME STEPPING:
   USE 0.1000000E-01 AS THE MINIMUM TIME STEP SIZE
   USE 0.1000000E-01 AS THE MAXIMUM TIME STEP SIZE

 TIME=  1.0000    

 INCLUDE TRANSIENT EFFECTS FOR  ALL DEGREES OF FREEDOM THIS LOAD STEP

 ERASE THE CURRENT DATABASE OUTPUT CONTROL TABLE.


 WRITE ALL  ITEMS TO THE DATABASE WITH A FREQUENCY OF NONE
   FOR ALL APPLICABLE ENTITIES

 WRITE NSOL ITEMS TO THE DATABASE WITH A FREQUENCY OF ALL 
   FOR ALL APPLICABLE ENTITIES

 WRITE RSOL ITEMS TO THE DATABASE WITH A FREQUENCY OF ALL 
   FOR ALL APPLICABLE ENTITIES

 WRITE STRS ITEMS TO THE DATABASE WITH A FREQUENCY OF ALL 
   FOR ALL APPLICABLE ENTITIES

 WRITE EPEL ITEMS TO THE DATABASE WITH A FREQUENCY OF ALL 
   FOR ALL APPLICABLE ENTITIES

 WRITE EPPL ITEMS TO THE DATABASE WITH A FREQUENCY OF ALL 
   FOR ALL APPLICABLE ENTITIES

 WRITE V    ITEMS TO THE DATABASE WITH A FREQUENCY OF ALL 
   FOR ALL APPLICABLE ENTITIES

 WRITE A    ITEMS TO THE DATABASE WITH A FREQUENCY OF ALL 
   FOR ALL APPLICABLE ENTITIES

 NONLINEAR STABILIZATION CONTROL:
 KEY=OFF 


 *GET  ANSINTER_  FROM  ACTI  ITEM=INT        VALUE=  0.00000000    

 *IF  ANSINTER_                         ( =   0.00000     )  NE  
      0                                 ( =   0.00000     )  THEN    

 *ENDIF

 *** NOTE ***                            CP =       0.422   TIME= 23:40:47
 The automatic domain decomposition logic has selected the MESH domain   
 decomposition method with 2 processes per solution.                     

 *****  ANSYS SOLVE    COMMAND  *****

 *** WARNING ***                         CP =       0.422   TIME= 23:40:47
 Element shape checking is currently inactive.  Issue SHPP,ON or         
 SHPP,WARN to reactivate, if desired.                                    

 *** NOTE ***                            CP =       0.422   TIME= 23:40:47
 The model data was checked and warning messages were found.             
  Please review output or errors file (                                  
 D:\Data\Research\Publications\SMO\ANSYS                                 
 files\MMM2\_ProjectScratch\Scr4672\file0.err ) for these warning        
 messages.                                                               

 *** SELECTION OF ELEMENT TECHNOLOGIES FOR APPLICABLE ELEMENTS ***
      --- GIVE SUGGESTIONS AND RESET THE KEY OPTIONS ---

 ELEMENT TYPE    1 IS SOLID186. KEYOPT(2)=0 IS SUGGESTED AND HAS BEEN RESET.
  KEYOPT(1-12)=    0    0    0    0    0    0    0    0    0    0    0    0



 *** ANSYS - ENGINEERING ANALYSIS SYSTEM  RELEASE Release 19.0     19.0     ***
 DISTRIBUTED ANSYS Mechanical Enterprise                       

 00000000  VERSION=WINDOWS x64   23:40:47  APR 01, 2019 CP=      0.422

 MMM01--Transient (F5)                                                         



                       S O L U T I O N   O P T I O N S

   PROBLEM DIMENSIONALITY. . . . . . . . . . . . .3-D                  
   DEGREES OF FREEDOM. . . . . . UX   UY   UZ  
   ANALYSIS TYPE . . . . . . . . . . . . . . . . .TRANSIENT            
      SOLUTION METHOD. . . . . . . . . . . . . . .FULL                 
   OFFSET TEMPERATURE FROM ABSOLUTE ZERO . . . . .  273.15    
   NONLINEAR GEOMETRIC EFFECTS . . . . . . . . . .ON
   EQUATION SOLVER OPTION. . . . . . . . . . . . .PCG                
      TOLERANCE. . . . . . . . . . . . . . . . . . 1.00000E-08
   NEWTON-RAPHSON OPTION . . . . . . . . . . . . .PROGRAM CHOSEN   
   GLOBALLY ASSEMBLED MATRIX . . . . . . . . . . .SYMMETRIC  
   USE SYSTEM COUPLING . . . . . . . . . . . . . .YES

 *** NOTE ***                            CP =       0.422   TIME= 23:40:47
 This nonlinear analysis defaults to using the full Newton-Raphson       
 solution procedure.  This can be modified using the NROPT command.      

 *** NOTE ***                            CP =       0.422   TIME= 23:40:47
 The conditions for direct assembly have been met.  No .emat or .erot    
 files will be produced.                                                 

  
  
     D I S T R I B U T E D   D O M A I N   D E C O M P O S E R
  
  ...Number of elements: 330
  ...Number of nodes:    2570
  ...Decompose to 2 CPU domains
  ...Element load balance ratio =     1.000


 SOLUTION MONITORING INFO IS WRITTEN TO FILE= file.mntr                                                                                                                                                                                                                                                           

 *** DATA TRANSFER INFORMATION ON SOURCE SIDE ***
     SOLVER . . . . . . . . . . . . . . . . . .Transient Structural (Solution 1)
      REGION. . . . . . . . . . . . . . . . . .Fluid Solid Interface (FSIN_1)
      VARIABLE. . . . . . . . . . . . . . . . .Incremental Displacement (INCD)

 *** DATA TRANSFER INFORMATION ON TARGET SIDE ***
     SOLVER . . . . . . . . . . . . . . . . . .Transient Structural (Solution 1)
      REGION. . . . . . . . . . . . . . . . . .Fluid Solid Interface (FSIN_1)
      VARIABLE. . . . . . . . . . . . . . . . .Force (FORC)

 *** LIST MESH INFORMATION ON FSIN INTERFACES
     REGION. . . . . . . . . . . . . . . . . .       1
      NUMBER OF ELEMENTS . . . . . . . . . . .     423
      NUMBER OF NODES. . . . . . . . . . . . .    1558
      NUMBER OF CORNER NODES . . . . . . . . .     568

 *** ANSYS - ENGINEERING ANALYSIS SYSTEM  RELEASE Release 19.0     19.0     ***
 DISTRIBUTED ANSYS Mechanical Enterprise                       

 00000000  VERSION=WINDOWS x64   23:40:50  APR 01, 2019 CP=      1.125

 MMM01--Transient (F5)                                                         



                   C O U P L I N G   S T E P   O P T I O N S

   STEP NUMBER . . . . . . . . . . . . . . . . . .     1
   COUPLING ITERATION. . . . . . . . . . . . . . .     1
   TIME AT END OF THIS STEP. . . . . . . . . . . . 0.10000E-01
   AUTOMATIC TIME STEPPING . . . . . . . . . . . .    ON
      STARTING TIME STEP SIZE. . . . . . . . . . . 0.10000E-01
      MINIMUM TIME STEP SIZE . . . . . . . . . . . 0.10000E-01
      MAXIMUM TIME STEP SIZE . . . . . . . . . . . 0.10000E-01
   MAXIMUM NUMBER OF EQUILIBRIUM ITERATIONS. . . .    15
   STEP CHANGE BOUNDARY CONDITIONS . . . . . . . .   YES
   STRESS-STIFFENING . . . . . . . . . . . . . . .    ON
   TRANSIENT (INERTIA) EFFECTS
      STRUCTURAL DOFS. . . . . . . . . . . . . . .    ON
   TRANSIENT INTEGRATION PARAMETERS
      GAMMA. . . . . . . . . . . . . . . . . . . . 0.10000    
      ALPHA. . . . . . . . . . . . . . . . . . . . 0.30250    
      DELTA. . . . . . . . . . . . . . . . . . . . 0.60000    
      USING HHT TIME INTEGRATION
      ALPHAF . . . . . . . . . . . . . . . . . . . 0.10000    
      ALPHAM . . . . . . . . . . . . . . . . . . .  0.0000    
   TERMINATE ANALYSIS IF NOT CONVERGED . . . . . .YES (EXIT)  
   CONVERGENCE CONTROLS. . . . . . . . . . . . . .USE DEFAULTS
   PRINT OUTPUT CONTROLS . . . . . . . . . . . . .NO PRINTOUT
   DATABASE OUTPUT CONTROLS
      ITEM     FREQUENCY   COMPONENT
       ALL       NONE               
      NSOL        ALL               
      RSOL        ALL               
      STRS        ALL               
      EPEL        ALL               
      EPPL        ALL               
      V           ALL               
      A           ALL               


 *** FORCE SUM ACROSS TARGET INTERFACE . . . . .Fluid Solid Interface (FSIN_1)
     RECEIVING FORCE FX SUM = -0.28126E-03
     RECEIVING FORCE FY SUM =  0.29063    
     RECEIVING FORCE FZ SUM =  -1.3412    


 *** NOTE ***                            CP =       1.219   TIME= 23:40:51
 The PCG solver has automatically set the level of difficulty for this   
 model to 2.                                                             


                         ***********  PRECISE MASS SUMMARY  ***********

   TOTAL RIGID BODY MASS MATRIX ABOUT ORIGIN
               Translational mass               |   Coupled translational/rotational mass
         224.01        0.0000        0.0000     |     0.0000       -172.01      -0.34247    
         0.0000        224.01        0.0000     |     172.01        0.0000       0.17176E-03
         0.0000        0.0000        224.01     |    0.34247      -0.17176E-03    0.0000    
     ------------------------------------------ | ------------------------------------------
                                                |         Rotational mass (inertia)
                                                |     331.36      -0.41849E-04   0.18624E-03
                                                |   -0.41849E-04    314.88        1.1909    
                                                |    0.18624E-03    1.1909        16.862    

   TOTAL MASS =  224.01    
     The mass principal axes coincide with the global Cartesian axes

   CENTER OF MASS (X,Y,Z)=   0.76677E-06   0.15288E-02  -0.76789    

   TOTAL INERTIA ABOUT CENTER OF MASS
         199.28      -0.41587E-04   0.54343E-04
       -0.41587E-04    182.79       0.92790    
        0.54343E-04   0.92790        16.861    

   PRINCIPAL INERTIAS =    199.28        182.79        16.856    
   ORIENTATION VECTORS OF THE INERTIA PRINCIPAL AXES IN GLOBAL CARTESIAN
     ( 1.000,-0.000, 0.000) ( 0.000, 1.000, 0.006) (-0.000,-0.006, 1.000) 


  *** MASS SUMMARY BY ELEMENT TYPE ***

  TYPE      MASS
     1   224.009    

 Range of element maximum matrix coefficients in global coordinates
 Maximum = 1.600051001E+09 at element 298.                               
 Minimum = 109404539 at element 75.                                      

   *** ELEMENT MATRIX FORMULATION TIMES
     TYPE    NUMBER   ENAME      TOTAL CP  AVE CP

        1       330  SOLID186      0.094   0.000284
 Time at end of element matrix formulation CP = 1.296875.                

 ALL CURRENT ANSYS DATA WRITTEN TO FILE NAME= file.rdb
  FOR POSSIBLE RESUME FROM THIS POINT
     FORCE CONVERGENCE VALUE  =   9.064      CRITERION=  0.4624E-01
 curEqn=   1373  totEqn=   1373 Job CP sec=      1.375
      Factor Done= 100% Factor Wall sec=      0.007 rate=    1433.7 Mflops
 Iteration=    10 Ratio=  0.124372     Limit=  1.000000E-08 Wall=     0.0
 Iteration=    50 Ratio=  9.274913E-04 Limit=  1.000000E-08 Wall=     0.0
 Iteration=   150 Ratio=  2.370964E-06 Limit=  1.000000E-08 Wall=     0.1

 DISTRIBUTED PCG SOLVER SOLUTION CONVERGED

 DISTRIBUTED PCG SOLVER SOLUTION STATISTICS

   NUMBER OF DOMAINS   =          13
   NUMBER OF ITERATIONS=         234
   NUMBER OF EQUATIONS =        7710
   LEVEL OF CONVERGENCE=           1
   CALCULATED NORM     = 0.94901E-08
   SPECIFIED TOLERANCE = 0.10000E-07
   TOTAL CPU TIME (sec)=        0.22
   TOTAL WALL TIME(sec)=        0.22
   TOTAL MEMORY (GB)   =        0.01

     DISP CONVERGENCE VALUE   =  0.1442E-05  CRITERION=  0.7356E-07
    EQUIL ITER   1 COMPLETED.  NEW TRIANG MATRIX.  MAX DOF INC=  0.1442E-05
     FORCE CONVERGENCE VALUE  =  0.3302E-03  CRITERION=  0.4725E-01 <<< CONVERGED
     DISP CONVERGENCE VALUE   =  0.5989E-10  CRITERION=  0.7506E-07 <<< CONVERGED
    EQUIL ITER   2 COMPLETED.  NEW TRIANG MATRIX.  MAX DOF INC = -0.5989E-10
    >>> SOLUTION CONVERGED AFTER EQUILIBRIUM ITERATION   2
 *** LOAD STEP     1   SUBSTEP     1  COMPLETED.    CUM ITER =      2
 *** TIME =  0.100000E-01     TIME INC =  0.100000E-01

 *** AVERAGE DISP INCREMENT ACROSS SOURCE INTERFACE. Fluid Solid Interface (FSIN_1)
     AVERAGE SENDING DISPLACEMENT INCREMENT DX = -0.87628E-09
     AVERAGE SENDING DISPLACEMENT INCREMENT DY =  0.29741E-06
     AVERAGE SENDING DISPLACEMENT INCREMENT DZ = -0.18781E-06

   COUPLING ITERATION. . . . . . . . . . . . . . .     2

 *** FORCE SUM ACROSS TARGET INTERFACE . . . . .Fluid Solid Interface (FSIN_1)
     RECEIVING FORCE FX SUM = -0.28018E-03
     RECEIVING FORCE FY SUM =  -4.0346    
     RECEIVING FORCE FZ SUM =  -2.5295    

     FORCE CONVERGENCE VALUE  =   16.97      CRITERION=  0.8657E-01
     DISP CONVERGENCE VALUE   =  0.9287E-05  CRITERION=  0.4738E-06
    EQUIL ITER   1 COMPLETED.  NEW TRIANG MATRIX.  MAX DOF INC= -0.9287E-05
     FORCE CONVERGENCE VALUE  =  0.1157E-01  CRITERION=  0.8881E-01 <<< CONVERGED
     DISP CONVERGENCE VALUE   =  0.4510E-09  CRITERION=  0.4835E-06 <<< CONVERGED
    EQUIL ITER   2 COMPLETED.  NEW TRIANG MATRIX.  MAX DOF INC =  0.4510E-09
    >>> SOLUTION CONVERGED AFTER EQUILIBRIUM ITERATION   2
 *** LOAD STEP     1   SUBSTEP     1  COMPLETED.    CUM ITER =      4
 *** TIME =  0.100000E-01     TIME INC =  0.100000E-01

 *** AVERAGE DISP INCREMENT ACROSS SOURCE INTERFACE. Fluid Solid Interface (FSIN_1)
     AVERAGE SENDING DISPLACEMENT INCREMENT DX = -0.14034E-08
     AVERAGE SENDING DISPLACEMENT INCREMENT DY = -0.43828E-05
     AVERAGE SENDING DISPLACEMENT INCREMENT DZ = -0.33921E-06

   COUPLING ITERATION. . . . . . . . . . . . . . .     3

 *** FORCE SUM ACROSS TARGET INTERFACE . . . . .Fluid Solid Interface (FSIN_1)
     RECEIVING FORCE FX SUM = -0.24649E-03
     RECEIVING FORCE FY SUM =  -4.3325    
     RECEIVING FORCE FZ SUM =  -2.4412    

     FORCE CONVERGENCE VALUE  =   16.37      CRITERION=  0.8350E-01
     DISP CONVERGENCE VALUE   =  0.1008E-04  CRITERION=  0.5144E-06
    EQUIL ITER   1 COMPLETED.  NEW TRIANG MATRIX.  MAX DOF INC= -0.1008E-04
     FORCE CONVERGENCE VALUE  =  0.1358E-01  CRITERION=  0.8576E-01 <<< CONVERGED
     DISP CONVERGENCE VALUE   =  0.4679E-09  CRITERION=  0.5249E-06 <<< CONVERGED
    EQUIL ITER   2 COMPLETED.  NEW TRIANG MATRIX.  MAX DOF INC =  0.4679E-09
    >>> SOLUTION CONVERGED AFTER EQUILIBRIUM ITERATION   2
 *** LOAD STEP     1   SUBSTEP     1  COMPLETED.    CUM ITER =      6
 *** TIME =  0.100000E-01     TIME INC =  0.100000E-01

 *** AVERAGE DISP INCREMENT ACROSS SOURCE INTERFACE. Fluid Solid Interface (FSIN_1)
     AVERAGE SENDING DISPLACEMENT INCREMENT DX = -0.13289E-08
     AVERAGE SENDING DISPLACEMENT INCREMENT DY = -0.47025E-05
     AVERAGE SENDING DISPLACEMENT INCREMENT DZ = -0.32557E-06

   COUPLING ITERATION. . . . . . . . . . . . . . .     4

 *** FORCE SUM ACROSS TARGET INTERFACE . . . . .Fluid Solid Interface (FSIN_1)
     RECEIVING FORCE FX SUM = -0.22345E-03
     RECEIVING FORCE FY SUM =  -4.4649    
     RECEIVING FORCE FZ SUM =  -2.3584    

     FORCE CONVERGENCE VALUE  =   15.81      CRITERION=  0.8065E-01
     DISP CONVERGENCE VALUE   =  0.1048E-04  CRITERION=  0.5346E-06
    EQUIL ITER   1 COMPLETED.  NEW TRIANG MATRIX.  MAX DOF INC= -0.1048E-04
     FORCE CONVERGENCE VALUE  =  0.1468E-01  CRITERION=  0.8290E-01 <<< CONVERGED
     DISP CONVERGENCE VALUE   =  0.4686E-09  CRITERION=  0.5455E-06 <<< CONVERGED
    EQUIL ITER   2 COMPLETED.  NEW TRIANG MATRIX.  MAX DOF INC =  0.4686E-09
    >>> SOLUTION CONVERGED AFTER EQUILIBRIUM ITERATION   2
 *** LOAD STEP     1   SUBSTEP     1  COMPLETED.    CUM ITER =      8
 *** TIME =  0.100000E-01     TIME INC =  0.100000E-01

 *** AVERAGE DISP INCREMENT ACROSS SOURCE INTERFACE. Fluid Solid Interface (FSIN_1)
     AVERAGE SENDING DISPLACEMENT INCREMENT DX = -0.12690E-08
     AVERAGE SENDING DISPLACEMENT INCREMENT DY = -0.48401E-05
     AVERAGE SENDING DISPLACEMENT INCREMENT DZ = -0.31280E-06

   COUPLING ITERATION. . . . . . . . . . . . . . .     5

 *** FORCE SUM ACROSS TARGET INTERFACE . . . . .Fluid Solid Interface (FSIN_1)
     RECEIVING FORCE FX SUM = -0.20473E-03
     RECEIVING FORCE FY SUM =  -4.5337    
     RECEIVING FORCE FZ SUM =  -2.2819    

     FORCE CONVERGENCE VALUE  =   15.29      CRITERION=  0.7803E-01
     DISP CONVERGENCE VALUE   =  0.1070E-04  CRITERION=  0.5461E-06
    EQUIL ITER   1 COMPLETED.  NEW TRIANG MATRIX.  MAX DOF INC= -0.1070E-04
     FORCE CONVERGENCE VALUE  =  0.1534E-01  CRITERION=  0.8026E-01 <<< CONVERGED
     DISP CONVERGENCE VALUE   =  0.4628E-09  CRITERION=  0.5573E-06 <<< CONVERGED
    EQUIL ITER   2 COMPLETED.  NEW TRIANG MATRIX.  MAX DOF INC =  0.4628E-09
    >>> SOLUTION CONVERGED AFTER EQUILIBRIUM ITERATION   2
 *** LOAD STEP     1   SUBSTEP     1  COMPLETED.    CUM ITER =     10
 *** TIME =  0.100000E-01     TIME INC =  0.100000E-01

 *** AVERAGE DISP INCREMENT ACROSS SOURCE INTERFACE. Fluid Solid Interface (FSIN_1)
     AVERAGE SENDING DISPLACEMENT INCREMENT DX = -0.12166E-08
     AVERAGE SENDING DISPLACEMENT INCREMENT DY = -0.49098E-05
     AVERAGE SENDING DISPLACEMENT INCREMENT DZ = -0.30127E-06

 >>> COUPLING STEP     1 COMPLETED AFTER COUPLING ITERATION     5

 *** ANSYS - ENGINEERING ANALYSIS SYSTEM  RELEASE Release 19.0     19.0     ***
 DISTRIBUTED ANSYS Mechanical Enterprise                       

 00000000  VERSION=WINDOWS x64   23:40:58  APR 01, 2019 CP=      4.391

 MMM01--Transient (F5)                                                         



                   C O U P L I N G   S T E P   O P T I O N S

   STEP NUMBER . . . . . . . . . . . . . . . . . .     2
   COUPLING ITERATION. . . . . . . . . . . . . . .     1
   TIME AT END OF THIS STEP. . . . . . . . . . . . 0.20000E-01
   AUTOMATIC TIME STEPPING . . . . . . . . . . . .    ON
      STARTING TIME STEP SIZE. . . . . . . . . . . 0.10000E-01
      MINIMUM TIME STEP SIZE . . . . . . . . . . . 0.10000E-01
      MAXIMUM TIME STEP SIZE . . . . . . . . . . . 0.10000E-01


 *** FORCE SUM ACROSS TARGET INTERFACE . . . . .Fluid Solid Interface (FSIN_1)
     RECEIVING FORCE FX SUM = -0.18789E-03
     RECEIVING FORCE FY SUM =  -4.5709    
     RECEIVING FORCE FZ SUM =  -2.2116    

     FORCE CONVERGENCE VALUE  =   1.478      CRITERION=  0.7626E-01
     DISP CONVERGENCE VALUE   =  0.3843E-04  CRITERION=  0.2500E-05
    EQUIL ITER   1 COMPLETED.  NEW TRIANG MATRIX.  MAX DOF INC= -0.3843E-04
     FORCE CONVERGENCE VALUE  =  0.1494      CRITERION=  0.8153E-01
     DISP CONVERGENCE VALUE   =  0.1029E-08  CRITERION=  0.2551E-05 <<< CONVERGED
    EQUIL ITER   2 COMPLETED.  NEW TRIANG MATRIX.  MAX DOF INC=  0.1029E-08
     FORCE CONVERGENCE VALUE  =  0.2625E-07  CRITERION=  0.8320E-01 <<< CONVERGED
    >>> SOLUTION CONVERGED AFTER EQUILIBRIUM ITERATION   2
 *** LOAD STEP     2   SUBSTEP     1  COMPLETED.    CUM ITER =     12
 *** TIME =  0.200000E-01     TIME INC =  0.100000E-01
 *** RESPONSE FREQ =  9.365       PERIOD=  0.1068      PTS/CYC =  11.    

 *** AVERAGE DISP INCREMENT ACROSS SOURCE INTERFACE. Fluid Solid Interface (FSIN_1)
     AVERAGE SENDING DISPLACEMENT INCREMENT DX = -0.41378E-08
     AVERAGE SENDING DISPLACEMENT INCREMENT DY = -0.17233E-04
     AVERAGE SENDING DISPLACEMENT INCREMENT DZ = -0.38170E-06

   COUPLING ITERATION. . . . . . . . . . . . . . .     2

 *** FORCE SUM ACROSS TARGET INTERFACE . . . . .Fluid Solid Interface (FSIN_1)
     RECEIVING FORCE FX SUM = -0.13642E-03
     RECEIVING FORCE FY SUM =  -1.9699    
     RECEIVING FORCE FZ SUM =  -1.2280    

     FORCE CONVERGENCE VALUE  =   7.040      CRITERION=  0.4387E-01
     DISP CONVERGENCE VALUE   =  0.3321E-04  CRITERION=  0.2500E-05
    EQUIL ITER   1 COMPLETED.  NEW TRIANG MATRIX.  MAX DOF INC= -0.3321E-04
     FORCE CONVERGENCE VALUE  =  0.1104      CRITERION=  0.4885E-01
     DISP CONVERGENCE VALUE   =  0.7780E-09  CRITERION=  0.2551E-05 <<< CONVERGED
    EQUIL ITER   2 COMPLETED.  NEW TRIANG MATRIX.  MAX DOF INC=  0.7780E-09
     FORCE CONVERGENCE VALUE  =  0.1171E-07  CRITERION=  0.4984E-01 <<< CONVERGED
    >>> SOLUTION CONVERGED AFTER EQUILIBRIUM ITERATION   2
 *** LOAD STEP     2   SUBSTEP     1  COMPLETED.    CUM ITER =     14
 *** TIME =  0.200000E-01     TIME INC =  0.100000E-01
 *** RESPONSE FREQ =  9.365       PERIOD=  0.1068      PTS/CYC =  11.    

 *** AVERAGE DISP INCREMENT ACROSS SOURCE INTERFACE. Fluid Solid Interface (FSIN_1)
     AVERAGE SENDING DISPLACEMENT INCREMENT DX = -0.36655E-08
     AVERAGE SENDING DISPLACEMENT INCREMENT DY = -0.14313E-04
     AVERAGE SENDING DISPLACEMENT INCREMENT DZ = -0.23775E-06

   COUPLING ITERATION. . . . . . . . . . . . . . .     3

 *** FORCE SUM ACROSS TARGET INTERFACE . . . . .Fluid Solid Interface (FSIN_1)
     RECEIVING FORCE FX SUM = -0.10127E-03
     RECEIVING FORCE FY SUM = -0.38891    
     RECEIVING FORCE FZ SUM = -0.59883    

     FORCE CONVERGENCE VALUE  =   11.11      CRITERION=  0.2386E-01
     DISP CONVERGENCE VALUE   =  0.2997E-04  CRITERION=  0.2500E-05
    EQUIL ITER   1 COMPLETED.  NEW TRIANG MATRIX.  MAX DOF INC= -0.2997E-04
     FORCE CONVERGENCE VALUE  =  0.8939E-01  CRITERION=  0.2937E-01
     DISP CONVERGENCE VALUE   =  0.6418E-09  CRITERION=  0.2551E-05 <<< CONVERGED
    EQUIL ITER   2 COMPLETED.  NEW TRIANG MATRIX.  MAX DOF INC=  0.6418E-09
     FORCE CONVERGENCE VALUE  =  0.5743E-08  CRITERION=  0.2997E-01 <<< CONVERGED
    >>> SOLUTION CONVERGED AFTER EQUILIBRIUM ITERATION   2
 *** LOAD STEP     2   SUBSTEP     1  COMPLETED.    CUM ITER =     16
 *** TIME =  0.200000E-01     TIME INC =  0.100000E-01
 *** RESPONSE FREQ =  9.365       PERIOD=  0.1068      PTS/CYC =  11.    

 *** AVERAGE DISP INCREMENT ACROSS SOURCE INTERFACE. Fluid Solid Interface (FSIN_1)
     AVERAGE SENDING DISPLACEMENT INCREMENT DX = -0.33596E-08
     AVERAGE SENDING DISPLACEMENT INCREMENT DY = -0.12546E-04
     AVERAGE SENDING DISPLACEMENT INCREMENT DZ = -0.14749E-06

   COUPLING ITERATION. . . . . . . . . . . . . . .     4

 *** FORCE SUM ACROSS TARGET INTERFACE . . . . .Fluid Solid Interface (FSIN_1)
     RECEIVING FORCE FX SUM = -0.85782E-04
     RECEIVING FORCE FY SUM =  0.76247    
     RECEIVING FORCE FZ SUM = -0.18574    

     FORCE CONVERGENCE VALUE  =   13.80      CRITERION=  0.1270E-01
     DISP CONVERGENCE VALUE   =  0.2764E-04  CRITERION=  0.2500E-05
    EQUIL ITER   1 COMPLETED.  NEW TRIANG MATRIX.  MAX DOF INC= -0.2764E-04
     FORCE CONVERGENCE VALUE  =  0.7590E-01  CRITERION=  0.1913E-01
     DISP CONVERGENCE VALUE   =  0.7488E-09  CRITERION=  0.2551E-05 <<< CONVERGED
    EQUIL ITER   2 COMPLETED.  NEW TRIANG MATRIX.  MAX DOF INC= -0.7488E-09
     FORCE CONVERGENCE VALUE  =  0.3282E-08  CRITERION=  0.1952E-01 <<< CONVERGED
    >>> SOLUTION CONVERGED AFTER EQUILIBRIUM ITERATION   2
 *** LOAD STEP     2   SUBSTEP     1  COMPLETED.    CUM ITER =     18
 *** TIME =  0.200000E-01     TIME INC =  0.100000E-01
 *** RESPONSE FREQ =  9.365       PERIOD=  0.1068      PTS/CYC =  11.    

 *** AVERAGE DISP INCREMENT ACROSS SOURCE INTERFACE. Fluid Solid Interface (FSIN_1)
     AVERAGE SENDING DISPLACEMENT INCREMENT DX = -0.31671E-08
     AVERAGE SENDING DISPLACEMENT INCREMENT DY = -0.11261E-04
     AVERAGE SENDING DISPLACEMENT INCREMENT DZ = -0.88460E-07

   COUPLING ITERATION. . . . . . . . . . . . . . .     5

 *** FORCE SUM ACROSS TARGET INTERFACE . . . . .Fluid Solid Interface (FSIN_1)
     RECEIVING FORCE FX SUM = -0.85658E-04
     RECEIVING FORCE FY SUM =   2.0836    
     RECEIVING FORCE FZ SUM =  0.22638    

     FORCE CONVERGENCE VALUE  =   16.50      CRITERION=  0.1161E-01
     DISP CONVERGENCE VALUE   =  0.2514E-04  CRITERION=  0.2500E-05
    EQUIL ITER   1 COMPLETED.  NEW TRIANG MATRIX.  MAX DOF INC= -0.2514E-04
     FORCE CONVERGENCE VALUE  =  0.6281E-01  CRITERION=  0.1636E-01
     DISP CONVERGENCE VALUE   =  0.8864E-09  CRITERION=  0.2551E-05 <<< CONVERGED
    EQUIL ITER   2 COMPLETED.  NEW TRIANG MATRIX.  MAX DOF INC= -0.8864E-09
     FORCE CONVERGENCE VALUE  =  0.2553E-08  CRITERION=  0.1670E-01 <<< CONVERGED
    >>> SOLUTION CONVERGED AFTER EQUILIBRIUM ITERATION   2
 *** LOAD STEP     2   SUBSTEP     1  COMPLETED.    CUM ITER =     20
 *** TIME =  0.200000E-01     TIME INC =  0.100000E-01
 *** RESPONSE FREQ =  9.365       PERIOD=  0.1068      PTS/CYC =  11.    

 *** AVERAGE DISP INCREMENT ACROSS SOURCE INTERFACE. Fluid Solid Interface (FSIN_1)
     AVERAGE SENDING DISPLACEMENT INCREMENT DX = -0.29916E-08
     AVERAGE SENDING DISPLACEMENT INCREMENT DY = -0.97828E-05
     AVERAGE SENDING DISPLACEMENT INCREMENT DZ = -0.30651E-07

 >>> COUPLING STEP     2 COMPLETED AFTER COUPLING ITERATION     5

 *** ANSYS - ENGINEERING ANALYSIS SYSTEM  RELEASE Release 19.0     19.0     ***
 DISTRIBUTED ANSYS Mechanical Enterprise                       

 00000000  VERSION=WINDOWS x64   23:41:05  APR 01, 2019 CP=      8.031

 MMM01--Transient (F5)                                                         



                   C O U P L I N G   S T E P   O P T I O N S

   STEP NUMBER . . . . . . . . . . . . . . . . . .     3
   COUPLING ITERATION. . . . . . . . . . . . . . .     1
   TIME AT END OF THIS STEP. . . . . . . . . . . . 0.30000E-01
   AUTOMATIC TIME STEPPING . . . . . . . . . . . .    ON
      STARTING TIME STEP SIZE. . . . . . . . . . . 0.10000E-01
      MINIMUM TIME STEP SIZE . . . . . . . . . . . 0.10000E-01
      MAXIMUM TIME STEP SIZE . . . . . . . . . . . 0.10000E-01


 *** FORCE SUM ACROSS TARGET INTERFACE . . . . .Fluid Solid Interface (FSIN_1)
     RECEIVING FORCE FX SUM = -0.83331E-04
     RECEIVING FORCE FY SUM =   2.6027    
     RECEIVING FORCE FZ SUM =  0.39198    

     FORCE CONVERGENCE VALUE  =   1.308      CRITERION=  0.1881E-01
     DISP CONVERGENCE VALUE   =  0.2332E-04  CRITERION=  0.2951E-05
    EQUIL ITER   1 COMPLETED.  NEW TRIANG MATRIX.  MAX DOF INC= -0.2332E-04
     FORCE CONVERGENCE VALUE  =  0.6023E-01  CRITERION=  0.1615E-01
     DISP CONVERGENCE VALUE   =  0.5662E-09  CRITERION=  0.3011E-05 <<< CONVERGED
    EQUIL ITER   2 COMPLETED.  NEW TRIANG MATRIX.  MAX DOF INC= -0.5662E-09
     FORCE CONVERGENCE VALUE  =  0.2235E-08  CRITERION=  0.1648E-01 <<< CONVERGED
    >>> SOLUTION CONVERGED AFTER EQUILIBRIUM ITERATION   2
 *** LOAD STEP     3   SUBSTEP     1  COMPLETED.    CUM ITER =     22
 *** TIME =  0.300000E-01     TIME INC =  0.100000E-01
 *** RESPONSE FREQ =  5.415       PERIOD=  0.1847      PTS/CYC =  18.    

 *** AVERAGE DISP INCREMENT ACROSS SOURCE INTERFACE. Fluid Solid Interface (FSIN_1)
     AVERAGE SENDING DISPLACEMENT INCREMENT DX = -0.36535E-08
     AVERAGE SENDING DISPLACEMENT INCREMENT DY = -0.45563E-05
     AVERAGE SENDING DISPLACEMENT INCREMENT DZ =  0.50186E-06

   COUPLING ITERATION. . . . . . . . . . . . . . .     2

 *** FORCE SUM ACROSS TARGET INTERFACE . . . . .Fluid Solid Interface (FSIN_1)
     RECEIVING FORCE FX SUM = -0.64362E-04
     RECEIVING FORCE FY SUM =   2.7024    
     RECEIVING FORCE FZ SUM =  0.62704    

     FORCE CONVERGENCE VALUE  =   2.819      CRITERION=  0.2480E-01
     DISP CONVERGENCE VALUE   =  0.2309E-04  CRITERION=  0.2951E-05
    EQUIL ITER   1 COMPLETED.  NEW TRIANG MATRIX.  MAX DOF INC= -0.2309E-04
     FORCE CONVERGENCE VALUE  =  0.6008E-01  CRITERION=  0.2295E-01
     DISP CONVERGENCE VALUE   =  0.6868E-09  CRITERION=  0.3011E-05 <<< CONVERGED
    EQUIL ITER   2 COMPLETED.  NEW TRIANG MATRIX.  MAX DOF INC= -0.6868E-09
     FORCE CONVERGENCE VALUE  =  0.3184E-08  CRITERION=  0.2341E-01 <<< CONVERGED
    >>> SOLUTION CONVERGED AFTER EQUILIBRIUM ITERATION   2
 *** LOAD STEP     3   SUBSTEP     1  COMPLETED.    CUM ITER =     24
 *** TIME =  0.300000E-01     TIME INC =  0.100000E-01
 *** RESPONSE FREQ =  5.415       PERIOD=  0.1847      PTS/CYC =  18.    

 *** AVERAGE DISP INCREMENT ACROSS SOURCE INTERFACE. Fluid Solid Interface (FSIN_1)
     AVERAGE SENDING DISPLACEMENT INCREMENT DX = -0.35248E-08
     AVERAGE SENDING DISPLACEMENT INCREMENT DY = -0.44605E-05
     AVERAGE SENDING DISPLACEMENT INCREMENT DZ =  0.52367E-06

   COUPLING ITERATION. . . . . . . . . . . . . . .     3

 *** FORCE SUM ACROSS TARGET INTERFACE . . . . .Fluid Solid Interface (FSIN_1)
     RECEIVING FORCE FX SUM = -0.59493E-04
     RECEIVING FORCE FY SUM =   2.4863    
     RECEIVING FORCE FZ SUM =  0.69695    

     FORCE CONVERGENCE VALUE  =   3.349      CRITERION=  0.2706E-01
     DISP CONVERGENCE VALUE   =  0.2342E-04  CRITERION=  0.2956E-05
    EQUIL ITER   1 COMPLETED.  NEW TRIANG MATRIX.  MAX DOF INC= -0.2342E-04
     FORCE CONVERGENCE VALUE  =  0.6100E-01  CRITERION=  0.2552E-01
     DISP CONVERGENCE VALUE   =  0.7285E-09  CRITERION=  0.3016E-05 <<< CONVERGED
    EQUIL ITER   2 COMPLETED.  NEW TRIANG MATRIX.  MAX DOF INC= -0.7285E-09
     FORCE CONVERGENCE VALUE  =  0.3635E-08  CRITERION=  0.2604E-01 <<< CONVERGED
    >>> SOLUTION CONVERGED AFTER EQUILIBRIUM ITERATION   2
 *** LOAD STEP     3   SUBSTEP     1  COMPLETED.    CUM ITER =     26
 *** TIME =  0.300000E-01     TIME INC =  0.100000E-01
 *** RESPONSE FREQ =  5.415       PERIOD=  0.1847      PTS/CYC =  18.    

 *** AVERAGE DISP INCREMENT ACROSS SOURCE INTERFACE. Fluid Solid Interface (FSIN_1)
     AVERAGE SENDING DISPLACEMENT INCREMENT DX = -0.34821E-08
     AVERAGE SENDING DISPLACEMENT INCREMENT DY = -0.47231E-05
     AVERAGE SENDING DISPLACEMENT INCREMENT DZ =  0.52213E-06

   COUPLING ITERATION. . . . . . . . . . . . . . .     4

 *** FORCE SUM ACROSS TARGET INTERFACE . . . . .Fluid Solid Interface (FSIN_1)
     RECEIVING FORCE FX SUM = -0.57712E-04
     RECEIVING FORCE FY SUM =   2.2854    
     RECEIVING FORCE FZ SUM =  0.73694    

     FORCE CONVERGENCE VALUE  =   3.676      CRITERION=  0.2848E-01
     DISP CONVERGENCE VALUE   =  0.2376E-04  CRITERION=  0.2973E-05
    EQUIL ITER   1 COMPLETED.  NEW TRIANG MATRIX.  MAX DOF INC= -0.2376E-04
     FORCE CONVERGENCE VALUE  =  0.6195E-01  CRITERION=  0.2714E-01
     DISP CONVERGENCE VALUE   =  0.7552E-09  CRITERION=  0.3033E-05 <<< CONVERGED
    EQUIL ITER   2 COMPLETED.  NEW TRIANG MATRIX.  MAX DOF INC= -0.7552E-09
     FORCE CONVERGENCE VALUE  =  0.3939E-08  CRITERION=  0.2769E-01 <<< CONVERGED
    >>> SOLUTION CONVERGED AFTER EQUILIBRIUM ITERATION   2
 *** LOAD STEP     3   SUBSTEP     1  COMPLETED.    CUM ITER =     28
 *** TIME =  0.300000E-01     TIME INC =  0.100000E-01
 *** RESPONSE FREQ =  5.415       PERIOD=  0.1847      PTS/CYC =  18.    

 *** AVERAGE DISP INCREMENT ACROSS SOURCE INTERFACE. Fluid Solid Interface (FSIN_1)
     AVERAGE SENDING DISPLACEMENT INCREMENT DX = -0.34570E-08
     AVERAGE SENDING DISPLACEMENT INCREMENT DY = -0.49649E-05
     AVERAGE SENDING DISPLACEMENT INCREMENT DZ =  0.51851E-06

   COUPLING ITERATION. . . . . . . . . . . . . . .     5

 *** FORCE SUM ACROSS TARGET INTERFACE . . . . .Fluid Solid Interface (FSIN_1)
     RECEIVING FORCE FX SUM = -0.49165E-04
     RECEIVING FORCE FY SUM =   1.8617    
     RECEIVING FORCE FZ SUM =  0.77902    

     FORCE CONVERGENCE VALUE  =   4.046      CRITERION=  0.3011E-01
     DISP CONVERGENCE VALUE   =  0.2458E-04  CRITERION=  0.3014E-05
    EQUIL ITER   1 COMPLETED.  NEW TRIANG MATRIX.  MAX DOF INC= -0.2458E-04
     FORCE CONVERGENCE VALUE  =  0.6406E-01  CRITERION=  0.2909E-01
     DISP CONVERGENCE VALUE   =  0.7892E-09  CRITERION=  0.3075E-05 <<< CONVERGED
    EQUIL ITER   2 COMPLETED.  NEW TRIANG MATRIX.  MAX DOF INC= -0.7892E-09
     FORCE CONVERGENCE VALUE  =  0.4374E-08  CRITERION=  0.2969E-01 <<< CONVERGED
    >>> SOLUTION CONVERGED AFTER EQUILIBRIUM ITERATION   2
 *** LOAD STEP     3   SUBSTEP     1  COMPLETED.    CUM ITER =     30
 *** TIME =  0.300000E-01     TIME INC =  0.100000E-01
 *** RESPONSE FREQ =  5.415       PERIOD=  0.1847      PTS/CYC =  18.    

 *** AVERAGE DISP INCREMENT ACROSS SOURCE INTERFACE. Fluid Solid Interface (FSIN_1)
     AVERAGE SENDING DISPLACEMENT INCREMENT DX = -0.34216E-08
     AVERAGE SENDING DISPLACEMENT INCREMENT DY = -0.54592E-05
     AVERAGE SENDING DISPLACEMENT INCREMENT DZ =  0.51222E-06

 >>> COUPLING STEP     3 COMPLETED AFTER COUPLING ITERATION     5

 *** ANSYS - ENGINEERING ANALYSIS SYSTEM  RELEASE Release 19.0     19.0     ***
 DISTRIBUTED ANSYS Mechanical Enterprise                       

 00000000  VERSION=WINDOWS x64   23:41:13  APR 01, 2019 CP=     11.906

 MMM01--Transient (F5)                                                         



                   C O U P L I N G   S T E P   O P T I O N S

   STEP NUMBER . . . . . . . . . . . . . . . . . .     4
   COUPLING ITERATION. . . . . . . . . . . . . . .     1
   TIME AT END OF THIS STEP. . . . . . . . . . . . 0.40000E-01
   AUTOMATIC TIME STEPPING . . . . . . . . . . . .    ON
      STARTING TIME STEP SIZE. . . . . . . . . . . 0.10000E-01
      MINIMUM TIME STEP SIZE . . . . . . . . . . . 0.10000E-01
      MAXIMUM TIME STEP SIZE . . . . . . . . . . . 0.10000E-01


 *** FORCE SUM ACROSS TARGET INTERFACE . . . . .Fluid Solid Interface (FSIN_1)
     RECEIVING FORCE FX SUM = -0.43636E-04
     RECEIVING FORCE FY SUM =   1.6667    
     RECEIVING FORCE FZ SUM =  0.80094    

     FORCE CONVERGENCE VALUE  =  0.5885      CRITERION=  0.2937E-01
     DISP CONVERGENCE VALUE   =  0.1442E-04  CRITERION=  0.3600E-05
    EQUIL ITER   1 COMPLETED.  NEW TRIANG MATRIX.  MAX DOF INC= -0.1442E-04
     FORCE CONVERGENCE VALUE  =  0.5479E-01  CRITERION=  0.2871E-01
     DISP CONVERGENCE VALUE   =  0.4675E-09  CRITERION=  0.3673E-05 <<< CONVERGED
    EQUIL ITER   2 COMPLETED.  NEW TRIANG MATRIX.  MAX DOF INC=  0.4675E-09
     FORCE CONVERGENCE VALUE  =  0.3633E-08  CRITERION=  0.2930E-01 <<< CONVERGED
    >>> SOLUTION CONVERGED AFTER EQUILIBRIUM ITERATION   2
 *** LOAD STEP     4   SUBSTEP     1  COMPLETED.    CUM ITER =     32
 *** TIME =  0.400000E-01     TIME INC =  0.100000E-01
 *** RESPONSE FREQ =  6.082       PERIOD=  0.1644      PTS/CYC =  16.    

 *** AVERAGE DISP INCREMENT ACROSS SOURCE INTERFACE. Fluid Solid Interface (FSIN_1)
     AVERAGE SENDING DISPLACEMENT INCREMENT DX = -0.30237E-08
     AVERAGE SENDING DISPLACEMENT INCREMENT DY =  0.27344E-05
     AVERAGE SENDING DISPLACEMENT INCREMENT DZ = -0.12933E-06

   COUPLING ITERATION. . . . . . . . . . . . . . .     2

 *** FORCE SUM ACROSS TARGET INTERFACE . . . . .Fluid Solid Interface (FSIN_1)
     RECEIVING FORCE FX SUM = -0.22669E-05
     RECEIVING FORCE FY SUM =  0.81582    
     RECEIVING FORCE FZ SUM =  0.86672    

     FORCE CONVERGENCE VALUE  =  0.9509      CRITERION=  0.3214E-01
     DISP CONVERGENCE VALUE   =  0.1589E-04  CRITERION=  0.3675E-05
    EQUIL ITER   1 COMPLETED.  NEW TRIANG MATRIX.  MAX DOF INC= -0.1589E-04
     FORCE CONVERGENCE VALUE  =  0.5516E-01  CRITERION=  0.3192E-01
     DISP CONVERGENCE VALUE   =  0.4637E-09  CRITERION=  0.3750E-05 <<< CONVERGED
    EQUIL ITER   2 COMPLETED.  NEW TRIANG MATRIX.  MAX DOF INC=  0.4637E-09
     FORCE CONVERGENCE VALUE  =  0.3988E-08  CRITERION=  0.3257E-01 <<< CONVERGED
    >>> SOLUTION CONVERGED AFTER EQUILIBRIUM ITERATION   2
 *** LOAD STEP     4   SUBSTEP     1  COMPLETED.    CUM ITER =     34
 *** TIME =  0.400000E-01     TIME INC =  0.100000E-01
 *** RESPONSE FREQ =  6.082       PERIOD=  0.1644      PTS/CYC =  16.    

 *** AVERAGE DISP INCREMENT ACROSS SOURCE INTERFACE. Fluid Solid Interface (FSIN_1)
     AVERAGE SENDING DISPLACEMENT INCREMENT DX = -0.29407E-08
     AVERAGE SENDING DISPLACEMENT INCREMENT DY =  0.17563E-05
     AVERAGE SENDING DISPLACEMENT INCREMENT DZ = -0.13399E-06

   COUPLING ITERATION. . . . . . . . . . . . . . .     3

 *** FORCE SUM ACROSS TARGET INTERFACE . . . . .Fluid Solid Interface (FSIN_1)
     RECEIVING FORCE FX SUM =  0.13825E-04
     RECEIVING FORCE FY SUM =  0.30730    
     RECEIVING FORCE FZ SUM =  0.87567    

     FORCE CONVERGENCE VALUE  =   1.099      CRITERION=  0.3295E-01
     DISP CONVERGENCE VALUE   =  0.1671E-04  CRITERION=  0.3717E-05
    EQUIL ITER   1 COMPLETED.  NEW TRIANG MATRIX.  MAX DOF INC= -0.1671E-04
     FORCE CONVERGENCE VALUE  =  0.5549E-01  CRITERION=  0.3293E-01
     DISP CONVERGENCE VALUE   =  0.4628E-09  CRITERION=  0.3793E-05 <<< CONVERGED
    EQUIL ITER   2 COMPLETED.  NEW TRIANG MATRIX.  MAX DOF INC=  0.4628E-09
     FORCE CONVERGENCE VALUE  =  0.4127E-08  CRITERION=  0.3360E-01 <<< CONVERGED
    >>> SOLUTION CONVERGED AFTER EQUILIBRIUM ITERATION   2
 *** LOAD STEP     4   SUBSTEP     1  COMPLETED.    CUM ITER =     36
 *** TIME =  0.400000E-01     TIME INC =  0.100000E-01
 *** RESPONSE FREQ =  6.082       PERIOD=  0.1644      PTS/CYC =  16.    

 *** AVERAGE DISP INCREMENT ACROSS SOURCE INTERFACE. Fluid Solid Interface (FSIN_1)
     AVERAGE SENDING DISPLACEMENT INCREMENT DX = -0.29129E-08
     AVERAGE SENDING DISPLACEMENT INCREMENT DY =  0.11670E-05
     AVERAGE SENDING DISPLACEMENT INCREMENT DZ = -0.14232E-06

   COUPLING ITERATION. . . . . . . . . . . . . . .     4

 *** FORCE SUM ACROSS TARGET INTERFACE . . . . .Fluid Solid Interface (FSIN_1)
     RECEIVING FORCE FX SUM =  0.30535E-04
     RECEIVING FORCE FY SUM = -0.16007    
     RECEIVING FORCE FZ SUM =  0.89002    

     FORCE CONVERGENCE VALUE  =   1.266      CRITERION=  0.3383E-01
     DISP CONVERGENCE VALUE   =  0.1748E-04  CRITERION=  0.3757E-05
    EQUIL ITER   1 COMPLETED.  NEW TRIANG MATRIX.  MAX DOF INC= -0.1748E-04
     FORCE CONVERGENCE VALUE  =  0.5579E-01  CRITERION=  0.3402E-01
     DISP CONVERGENCE VALUE   =  0.4625E-09  CRITERION=  0.3833E-05 <<< CONVERGED
    EQUIL ITER   2 COMPLETED.  NEW TRIANG MATRIX.  MAX DOF INC=  0.4625E-09
     FORCE CONVERGENCE VALUE  =  0.4261E-08  CRITERION=  0.3471E-01 <<< CONVERGED
    >>> SOLUTION CONVERGED AFTER EQUILIBRIUM ITERATION   2
 *** LOAD STEP     4   SUBSTEP     1  COMPLETED.    CUM ITER =     38
 *** TIME =  0.400000E-01     TIME INC =  0.100000E-01
 *** RESPONSE FREQ =  6.082       PERIOD=  0.1644      PTS/CYC =  16.    

 *** AVERAGE DISP INCREMENT ACROSS SOURCE INTERFACE. Fluid Solid Interface (FSIN_1)
     AVERAGE SENDING DISPLACEMENT INCREMENT DX = -0.28832E-08
     AVERAGE SENDING DISPLACEMENT INCREMENT DY =  0.62957E-06
     AVERAGE SENDING DISPLACEMENT INCREMENT DZ = -0.14823E-06

   COUPLING ITERATION. . . . . . . . . . . . . . .     5

 *** FORCE SUM ACROSS TARGET INTERFACE . . . . .Fluid Solid Interface (FSIN_1)
     RECEIVING FORCE FX SUM =  0.64411E-04
     RECEIVING FORCE FY SUM = -0.99309    
     RECEIVING FORCE FZ SUM =  0.91501    

     FORCE CONVERGENCE VALUE  =   1.538      CRITERION=  0.3523E-01
     DISP CONVERGENCE VALUE   =  0.1889E-04  CRITERION=  0.3829E-05
    EQUIL ITER   1 COMPLETED.  NEW TRIANG MATRIX.  MAX DOF INC= -0.1889E-04
     FORCE CONVERGENCE VALUE  =  0.5637E-01  CRITERION=  0.3578E-01
     DISP CONVERGENCE VALUE   =  0.4641E-09  CRITERION=  0.3907E-05 <<< CONVERGED
    EQUIL ITER   2 COMPLETED.  NEW TRIANG MATRIX.  MAX DOF INC=  0.4641E-09
     FORCE CONVERGENCE VALUE  =  0.4501E-08  CRITERION=  0.3651E-01 <<< CONVERGED
    >>> SOLUTION CONVERGED AFTER EQUILIBRIUM ITERATION   2
 *** LOAD STEP     4   SUBSTEP     1  COMPLETED.    CUM ITER =     40
 *** TIME =  0.400000E-01     TIME INC =  0.100000E-01
 *** RESPONSE FREQ =  6.082       PERIOD=  0.1644      PTS/CYC =  16.    

 *** AVERAGE DISP INCREMENT ACROSS SOURCE INTERFACE. Fluid Solid Interface (FSIN_1)
     AVERAGE SENDING DISPLACEMENT INCREMENT DX = -0.28272E-08
     AVERAGE SENDING DISPLACEMENT INCREMENT DY = -0.32327E-06
     AVERAGE SENDING DISPLACEMENT INCREMENT DZ = -0.15653E-06

 >>> COUPLING STEP     4 COMPLETED AFTER COUPLING ITERATION     5

 *** ANSYS - ENGINEERING ANALYSIS SYSTEM  RELEASE Release 19.0     19.0     ***
 DISTRIBUTED ANSYS Mechanical Enterprise                       

 00000000  VERSION=WINDOWS x64   23:41:20  APR 01, 2019 CP=     15.750

 MMM01--Transient (F5)                                                         



                   C O U P L I N G   S T E P   O P T I O N S

   STEP NUMBER . . . . . . . . . . . . . . . . . .     5
   COUPLING ITERATION. . . . . . . . . . . . . . .     1
   TIME AT END OF THIS STEP. . . . . . . . . . . . 0.50000E-01
   AUTOMATIC TIME STEPPING . . . . . . . . . . . .    ON
      STARTING TIME STEP SIZE. . . . . . . . . . . 0.10000E-01
      MINIMUM TIME STEP SIZE . . . . . . . . . . . 0.10000E-01
      MAXIMUM TIME STEP SIZE . . . . . . . . . . . 0.10000E-01


 *** FORCE SUM ACROSS TARGET INTERFACE . . . . .Fluid Solid Interface (FSIN_1)
     RECEIVING FORCE FX SUM =  0.91662E-04
     RECEIVING FORCE FY SUM =  -1.6507    
     RECEIVING FORCE FZ SUM =  0.93430    

     FORCE CONVERGENCE VALUE  =  0.6354      CRITERION=  0.3611E-01
     DISP CONVERGENCE VALUE   =  0.2049E-04  CRITERION=  0.4589E-05
    EQUIL ITER   1 COMPLETED.  NEW TRIANG MATRIX.  MAX DOF INC= -0.2049E-04
     FORCE CONVERGENCE VALUE  =  0.5149E-01  CRITERION=  0.3793E-01
     DISP CONVERGENCE VALUE   =  0.4630E-09  CRITERION=  0.4683E-05 <<< CONVERGED
    EQUIL ITER   2 COMPLETED.  NEW TRIANG MATRIX.  MAX DOF INC=  0.4630E-09
     FORCE CONVERGENCE VALUE  =  0.3952E-08  CRITERION=  0.3870E-01 <<< CONVERGED
    >>> SOLUTION CONVERGED AFTER EQUILIBRIUM ITERATION   2
 *** LOAD STEP     5   SUBSTEP     1  COMPLETED.    CUM ITER =     42
 *** TIME =  0.500000E-01     TIME INC =  0.100000E-01
 *** RESPONSE FREQ =  7.394       PERIOD=  0.1352      PTS/CYC =  14.    

 *** AVERAGE DISP INCREMENT ACROSS SOURCE INTERFACE. Fluid Solid Interface (FSIN_1)
     AVERAGE SENDING DISPLACEMENT INCREMENT DX = -0.13785E-08
     AVERAGE SENDING DISPLACEMENT INCREMENT DY = -0.18901E-05
     AVERAGE SENDING DISPLACEMENT INCREMENT DZ = -0.42007E-06

   COUPLING ITERATION. . . . . . . . . . . . . . .     2

 *** FORCE SUM ACROSS TARGET INTERFACE . . . . .Fluid Solid Interface (FSIN_1)
     RECEIVING FORCE FX SUM =  0.13936E-03
     RECEIVING FORCE FY SUM =  -2.0895    
     RECEIVING FORCE FZ SUM =   1.0383    

     FORCE CONVERGENCE VALUE  =   1.168      CRITERION=  0.3993E-01
     DISP CONVERGENCE VALUE   =  0.2115E-04  CRITERION=  0.4623E-05
    EQUIL ITER   1 COMPLETED.  NEW TRIANG MATRIX.  MAX DOF INC= -0.2115E-04
     FORCE CONVERGENCE VALUE  =  0.5156E-01  CRITERION=  0.4193E-01
     DISP CONVERGENCE VALUE   =  0.4669E-09  CRITERION=  0.4718E-05 <<< CONVERGED
    EQUIL ITER   2 COMPLETED.  NEW TRIANG MATRIX.  MAX DOF INC=  0.4669E-09
     FORCE CONVERGENCE VALUE  =  0.4342E-08  CRITERION=  0.4278E-01 <<< CONVERGED
    >>> SOLUTION CONVERGED AFTER EQUILIBRIUM ITERATION   2
 *** LOAD STEP     5   SUBSTEP     1  COMPLETED.    CUM ITER =     44
 *** TIME =  0.500000E-01     TIME INC =  0.100000E-01
 *** RESPONSE FREQ =  7.394       PERIOD=  0.1352      PTS/CYC =  14.    

 *** AVERAGE DISP INCREMENT ACROSS SOURCE INTERFACE. Fluid Solid Interface (FSIN_1)
     AVERAGE SENDING DISPLACEMENT INCREMENT DX = -0.12794E-08
     AVERAGE SENDING DISPLACEMENT INCREMENT DY = -0.23907E-05
     AVERAGE SENDING DISPLACEMENT INCREMENT DZ = -0.40870E-06

   COUPLING ITERATION. . . . . . . . . . . . . . .     3

 *** FORCE SUM ACROSS TARGET INTERFACE . . . . .Fluid Solid Interface (FSIN_1)
     RECEIVING FORCE FX SUM =  0.18675E-03
     RECEIVING FORCE FY SUM =  -2.3965    
     RECEIVING FORCE FZ SUM =   1.1305    

     FORCE CONVERGENCE VALUE  =   1.808      CRITERION=  0.4333E-01
     DISP CONVERGENCE VALUE   =  0.2155E-04  CRITERION=  0.4644E-05
    EQUIL ITER   1 COMPLETED.  NEW TRIANG MATRIX.  MAX DOF INC= -0.2155E-04
     FORCE CONVERGENCE VALUE  =  0.5156E-01  CRITERION=  0.4543E-01
     DISP CONVERGENCE VALUE   =  0.4688E-09  CRITERION=  0.4739E-05 <<< CONVERGED
    EQUIL ITER   2 COMPLETED.  NEW TRIANG MATRIX.  MAX DOF INC=  0.4688E-09
     FORCE CONVERGENCE VALUE  =  0.4711E-08  CRITERION=  0.4636E-01 <<< CONVERGED
    >>> SOLUTION CONVERGED AFTER EQUILIBRIUM ITERATION   2
 *** LOAD STEP     5   SUBSTEP     1  COMPLETED.    CUM ITER =     46
 *** TIME =  0.500000E-01     TIME INC =  0.100000E-01
 *** RESPONSE FREQ =  7.394       PERIOD=  0.1352      PTS/CYC =  14.    

 *** AVERAGE DISP INCREMENT ACROSS SOURCE INTERFACE. Fluid Solid Interface (FSIN_1)
     AVERAGE SENDING DISPLACEMENT INCREMENT DX = -0.11888E-08
     AVERAGE SENDING DISPLACEMENT INCREMENT DY = -0.27439E-05
     AVERAGE SENDING DISPLACEMENT INCREMENT DZ = -0.39516E-06

   COUPLING ITERATION. . . . . . . . . . . . . . .     4

 *** FORCE SUM ACROSS TARGET INTERFACE . . . . .Fluid Solid Interface (FSIN_1)
     RECEIVING FORCE FX SUM =  0.22446E-03
     RECEIVING FORCE FY SUM =  -2.7129    
     RECEIVING FORCE FZ SUM =   1.2041    

     FORCE CONVERGENCE VALUE  =   2.337      CRITERION=  0.4602E-01
     DISP CONVERGENCE VALUE   =  0.2200E-04  CRITERION=  0.4667E-05
    EQUIL ITER   1 COMPLETED.  NEW TRIANG MATRIX.  MAX DOF INC= -0.2200E-04
     FORCE CONVERGENCE VALUE  =  0.5168E-01  CRITERION=  0.4824E-01
     DISP CONVERGENCE VALUE   =  0.4719E-09  CRITERION=  0.4762E-05 <<< CONVERGED
    EQUIL ITER   2 COMPLETED.  NEW TRIANG MATRIX.  MAX DOF INC=  0.4719E-09
     FORCE CONVERGENCE VALUE  =  0.5005E-08  CRITERION=  0.4923E-01 <<< CONVERGED
    >>> SOLUTION CONVERGED AFTER EQUILIBRIUM ITERATION   2
 *** LOAD STEP     5   SUBSTEP     1  COMPLETED.    CUM ITER =     48
 *** TIME =  0.500000E-01     TIME INC =  0.100000E-01
 *** RESPONSE FREQ =  7.394       PERIOD=  0.1352      PTS/CYC =  14.    

 *** AVERAGE DISP INCREMENT ACROSS SOURCE INTERFACE. Fluid Solid Interface (FSIN_1)
     AVERAGE SENDING DISPLACEMENT INCREMENT DX = -0.11154E-08
     AVERAGE SENDING DISPLACEMENT INCREMENT DY = -0.31077E-05
     AVERAGE SENDING DISPLACEMENT INCREMENT DZ = -0.38592E-06

   COUPLING ITERATION. . . . . . . . . . . . . . .     5

 *** FORCE SUM ACROSS TARGET INTERFACE . . . . .Fluid Solid Interface (FSIN_1)
     RECEIVING FORCE FX SUM =  0.25215E-03
     RECEIVING FORCE FY SUM =  -2.9955    
     RECEIVING FORCE FZ SUM =   1.2550    

     FORCE CONVERGENCE VALUE  =   2.712      CRITERION=  0.4793E-01
     DISP CONVERGENCE VALUE   =  0.2242E-04  CRITERION=  0.4687E-05
    EQUIL ITER   1 COMPLETED.  NEW TRIANG MATRIX.  MAX DOF INC= -0.2242E-04
     FORCE CONVERGENCE VALUE  =  0.5184E-01  CRITERION=  0.5024E-01
     DISP CONVERGENCE VALUE   =  0.4752E-09  CRITERION=  0.4783E-05 <<< CONVERGED
    EQUIL ITER   2 COMPLETED.  NEW TRIANG MATRIX.  MAX DOF INC=  0.4752E-09
     FORCE CONVERGENCE VALUE  =  0.5229E-08  CRITERION=  0.5126E-01 <<< CONVERGED
    >>> SOLUTION CONVERGED AFTER EQUILIBRIUM ITERATION   2
 *** LOAD STEP     5   SUBSTEP     1  COMPLETED.    CUM ITER =     50
 *** TIME =  0.500000E-01     TIME INC =  0.100000E-01
 *** RESPONSE FREQ =  7.394       PERIOD=  0.1352      PTS/CYC =  14.    

 *** AVERAGE DISP INCREMENT ACROSS SOURCE INTERFACE. Fluid Solid Interface (FSIN_1)
     AVERAGE SENDING DISPLACEMENT INCREMENT DX = -0.10615E-08
     AVERAGE SENDING DISPLACEMENT INCREMENT DY = -0.34338E-05
     AVERAGE SENDING DISPLACEMENT INCREMENT DZ = -0.38105E-06

 >>> COUPLING STEP     5 COMPLETED AFTER COUPLING ITERATION     5

 *** ANSYS - ENGINEERING ANALYSIS SYSTEM  RELEASE Release 19.0     19.0     ***
 DISTRIBUTED ANSYS Mechanical Enterprise                       

 00000000  VERSION=WINDOWS x64   23:41:28  APR 01, 2019 CP=     19.531

 MMM01--Transient (F5)                                                         



                   C O U P L I N G   S T E P   O P T I O N S

   STEP NUMBER . . . . . . . . . . . . . . . . . .     6
   COUPLING ITERATION. . . . . . . . . . . . . . .     1
   TIME AT END OF THIS STEP. . . . . . . . . . . . 0.60000E-01
   AUTOMATIC TIME STEPPING . . . . . . . . . . . .    ON
      STARTING TIME STEP SIZE. . . . . . . . . . . 0.10000E-01
      MINIMUM TIME STEP SIZE . . . . . . . . . . . 0.10000E-01
      MAXIMUM TIME STEP SIZE . . . . . . . . . . . 0.10000E-01


 *** FORCE SUM ACROSS TARGET INTERFACE . . . . .Fluid Solid Interface (FSIN_1)
     RECEIVING FORCE FX SUM =  0.26329E-03
     RECEIVING FORCE FY SUM =  -3.1173    
     RECEIVING FORCE FZ SUM =   1.2778    

     FORCE CONVERGENCE VALUE  =   1.083      CRITERION=  0.5007E-01
     DISP CONVERGENCE VALUE   =  0.3323E-04  CRITERION=  0.6007E-05
    EQUIL ITER   1 COMPLETED.  NEW TRIANG MATRIX.  MAX DOF INC= -0.3323E-04
     FORCE CONVERGENCE VALUE  =  0.7270E-01  CRITERION=  0.5395E-01
     DISP CONVERGENCE VALUE   =  0.7316E-09  CRITERION=  0.6130E-05 <<< CONVERGED
    EQUIL ITER   2 COMPLETED.  NEW TRIANG MATRIX.  MAX DOF INC=  0.7316E-09
     FORCE CONVERGENCE VALUE  =  0.7886E-08  CRITERION=  0.5505E-01 <<< CONVERGED
    >>> SOLUTION CONVERGED AFTER EQUILIBRIUM ITERATION   2
 *** LOAD STEP     6   SUBSTEP     1  COMPLETED.    CUM ITER =     52
 *** TIME =  0.600000E-01     TIME INC =  0.100000E-01
 *** RESPONSE FREQ =  6.470       PERIOD=  0.1546      PTS/CYC =  15.    

 *** AVERAGE DISP INCREMENT ACROSS SOURCE INTERFACE. Fluid Solid Interface (FSIN_1)
     AVERAGE SENDING DISPLACEMENT INCREMENT DX =  0.11140E-08
     AVERAGE SENDING DISPLACEMENT INCREMENT DY = -0.12284E-04
     AVERAGE SENDING DISPLACEMENT INCREMENT DZ =  0.22785E-06

   COUPLING ITERATION. . . . . . . . . . . . . . .     2

 *** FORCE SUM ACROSS TARGET INTERFACE . . . . .Fluid Solid Interface (FSIN_1)
     RECEIVING FORCE FX SUM =  0.30685E-03
     RECEIVING FORCE FY SUM =  -3.2264    
     RECEIVING FORCE FZ SUM =   1.3659    

     FORCE CONVERGENCE VALUE  =   1.330      CRITERION=  0.5295E-01
     DISP CONVERGENCE VALUE   =  0.3338E-04  CRITERION=  0.6015E-05
    EQUIL ITER   1 COMPLETED.  NEW TRIANG MATRIX.  MAX DOF INC= -0.3338E-04
     FORCE CONVERGENCE VALUE  =  0.7340E-01  CRITERION=  0.5681E-01
     DISP CONVERGENCE VALUE   =  0.7422E-09  CRITERION=  0.6138E-05 <<< CONVERGED
    EQUIL ITER   2 COMPLETED.  NEW TRIANG MATRIX.  MAX DOF INC=  0.7422E-09
     FORCE CONVERGENCE VALUE  =  0.8461E-08  CRITERION=  0.5797E-01 <<< CONVERGED
    >>> SOLUTION CONVERGED AFTER EQUILIBRIUM ITERATION   2
 *** LOAD STEP     6   SUBSTEP     1  COMPLETED.    CUM ITER =     54
 *** TIME =  0.600000E-01     TIME INC =  0.100000E-01
 *** RESPONSE FREQ =  6.470       PERIOD=  0.1546      PTS/CYC =  15.    

 *** AVERAGE DISP INCREMENT ACROSS SOURCE INTERFACE. Fluid Solid Interface (FSIN_1)
     AVERAGE SENDING DISPLACEMENT INCREMENT DX =  0.11958E-08
     AVERAGE SENDING DISPLACEMENT INCREMENT DY = -0.12406E-04
     AVERAGE SENDING DISPLACEMENT INCREMENT DZ =  0.24643E-06

   COUPLING ITERATION. . . . . . . . . . . . . . .     3

 *** FORCE SUM ACROSS TARGET INTERFACE . . . . .Fluid Solid Interface (FSIN_1)
     RECEIVING FORCE FX SUM =  0.37300E-03
     RECEIVING FORCE FY SUM =  -3.3260    
     RECEIVING FORCE FZ SUM =   1.4563    

     FORCE CONVERGENCE VALUE  =   1.755      CRITERION=  0.5561E-01
     DISP CONVERGENCE VALUE   =  0.3354E-04  CRITERION=  0.6022E-05
    EQUIL ITER   1 COMPLETED.  NEW TRIANG MATRIX.  MAX DOF INC= -0.3354E-04
     FORCE CONVERGENCE VALUE  =  0.7406E-01  CRITERION=  0.5947E-01
     DISP CONVERGENCE VALUE   =  0.7529E-09  CRITERION=  0.6145E-05 <<< CONVERGED
    EQUIL ITER   2 COMPLETED.  NEW TRIANG MATRIX.  MAX DOF INC=  0.7529E-09
     FORCE CONVERGENCE VALUE  =  0.8955E-08  CRITERION=  0.6068E-01 <<< CONVERGED
    >>> SOLUTION CONVERGED AFTER EQUILIBRIUM ITERATION   2
 *** LOAD STEP     6   SUBSTEP     1  COMPLETED.    CUM ITER =     56
 *** TIME =  0.600000E-01     TIME INC =  0.100000E-01
 *** RESPONSE FREQ =  6.470       PERIOD=  0.1546      PTS/CYC =  15.    

 *** AVERAGE DISP INCREMENT ACROSS SOURCE INTERFACE. Fluid Solid Interface (FSIN_1)
     AVERAGE SENDING DISPLACEMENT INCREMENT DX =  0.12981E-08
     AVERAGE SENDING DISPLACEMENT INCREMENT DY = -0.12519E-04
     AVERAGE SENDING DISPLACEMENT INCREMENT DZ =  0.27323E-06

   COUPLING ITERATION. . . . . . . . . . . . . . .     4

 *** FORCE SUM ACROSS TARGET INTERFACE . . . . .Fluid Solid Interface (FSIN_1)
     RECEIVING FORCE FX SUM =  0.41560E-03
     RECEIVING FORCE FY SUM =  -3.3620    
     RECEIVING FORCE FZ SUM =   1.5297    

     FORCE CONVERGENCE VALUE  =   2.158      CRITERION=  0.5785E-01
     DISP CONVERGENCE VALUE   =  0.3356E-04  CRITERION=  0.6022E-05
    EQUIL ITER   1 COMPLETED.  NEW TRIANG MATRIX.  MAX DOF INC= -0.3356E-04
     FORCE CONVERGENCE VALUE  =  0.7390E-01  CRITERION=  0.6166E-01
     DISP CONVERGENCE VALUE   =  0.7551E-09  CRITERION=  0.6145E-05 <<< CONVERGED
    EQUIL ITER   2 COMPLETED.  NEW TRIANG MATRIX.  MAX DOF INC=  0.7551E-09
     FORCE CONVERGENCE VALUE  =  0.9300E-08  CRITERION=  0.6292E-01 <<< CONVERGED
    >>> SOLUTION CONVERGED AFTER EQUILIBRIUM ITERATION   2
 *** LOAD STEP     6   SUBSTEP     1  COMPLETED.    CUM ITER =     58
 *** TIME =  0.600000E-01     TIME INC =  0.100000E-01
 *** RESPONSE FREQ =  6.470       PERIOD=  0.1546      PTS/CYC =  15.    

 *** AVERAGE DISP INCREMENT ACROSS SOURCE INTERFACE. Fluid Solid Interface (FSIN_1)
     AVERAGE SENDING DISPLACEMENT INCREMENT DX =  0.13714E-08
     AVERAGE SENDING DISPLACEMENT INCREMENT DY = -0.12562E-04
     AVERAGE SENDING DISPLACEMENT INCREMENT DZ =  0.29182E-06

   COUPLING ITERATION. . . . . . . . . . . . . . .     5

 *** FORCE SUM ACROSS TARGET INTERFACE . . . . .Fluid Solid Interface (FSIN_1)
     RECEIVING FORCE FX SUM =  0.44095E-03
     RECEIVING FORCE FY SUM =  -3.3575    
     RECEIVING FORCE FZ SUM =   1.5829    

     FORCE CONVERGENCE VALUE  =   2.469      CRITERION=  0.5952E-01
     DISP CONVERGENCE VALUE   =  0.3350E-04  CRITERION=  0.6022E-05
    EQUIL ITER   1 COMPLETED.  NEW TRIANG MATRIX.  MAX DOF INC= -0.3350E-04
     FORCE CONVERGENCE VALUE  =  0.7338E-01  CRITERION=  0.6328E-01
     DISP CONVERGENCE VALUE   =  0.7529E-09  CRITERION=  0.6145E-05 <<< CONVERGED
    EQUIL ITER   2 COMPLETED.  NEW TRIANG MATRIX.  MAX DOF INC=  0.7529E-09
     FORCE CONVERGENCE VALUE  =  0.9495E-08  CRITERION=  0.6457E-01 <<< CONVERGED
    >>> SOLUTION CONVERGED AFTER EQUILIBRIUM ITERATION   2
 *** LOAD STEP     6   SUBSTEP     1  COMPLETED.    CUM ITER =     60
 *** TIME =  0.600000E-01     TIME INC =  0.100000E-01
 *** RESPONSE FREQ =  6.470       PERIOD=  0.1546      PTS/CYC =  15.    

 *** AVERAGE DISP INCREMENT ACROSS SOURCE INTERFACE. Fluid Solid Interface (FSIN_1)
     AVERAGE SENDING DISPLACEMENT INCREMENT DX =  0.14193E-08
     AVERAGE SENDING DISPLACEMENT INCREMENT DY = -0.12561E-04
     AVERAGE SENDING DISPLACEMENT INCREMENT DZ =  0.30388E-06

 >>> COUPLING STEP     6 COMPLETED AFTER COUPLING ITERATION     5

 *** ANSYS - ENGINEERING ANALYSIS SYSTEM  RELEASE Release 19.0     19.0     ***
 DISTRIBUTED ANSYS Mechanical Enterprise                       

 00000000  VERSION=WINDOWS x64   23:41:35  APR 01, 2019 CP=     23.312

 MMM01--Transient (F5)                                                         



                   C O U P L I N G   S T E P   O P T I O N S

   STEP NUMBER . . . . . . . . . . . . . . . . . .     7
   COUPLING ITERATION. . . . . . . . . . . . . . .     1
   TIME AT END OF THIS STEP. . . . . . . . . . . . 0.70000E-01
   AUTOMATIC TIME STEPPING . . . . . . . . . . . .    ON
      STARTING TIME STEP SIZE. . . . . . . . . . . 0.10000E-01
      MINIMUM TIME STEP SIZE . . . . . . . . . . . 0.10000E-01
      MAXIMUM TIME STEP SIZE . . . . . . . . . . . 0.10000E-01


 *** FORCE SUM ACROSS TARGET INTERFACE . . . . .Fluid Solid Interface (FSIN_1)
     RECEIVING FORCE FX SUM =  0.45739E-03
     RECEIVING FORCE FY SUM =  -3.3506    
     RECEIVING FORCE FZ SUM =   1.6201    

     FORCE CONVERGENCE VALUE  =   1.733      CRITERION=  0.6316E-01
     DISP CONVERGENCE VALUE   =  0.4465E-04  CRITERION=  0.8082E-05
    EQUIL ITER   1 COMPLETED.  NEW TRIANG MATRIX.  MAX DOF INC= -0.4465E-04
     FORCE CONVERGENCE VALUE  =  0.1219      CRITERION=  0.6778E-01
     DISP CONVERGENCE VALUE   =  0.1195E-08  CRITERION=  0.8247E-05 <<< CONVERGED
    EQUIL ITER   2 COMPLETED.  NEW TRIANG MATRIX.  MAX DOF INC=  0.1195E-08
     FORCE CONVERGENCE VALUE  =  0.1535E-07  CRITERION=  0.6917E-01 <<< CONVERGED
    >>> SOLUTION CONVERGED AFTER EQUILIBRIUM ITERATION   2
 *** LOAD STEP     7   SUBSTEP     1  COMPLETED.    CUM ITER =     62
 *** TIME =  0.700000E-01     TIME INC =  0.100000E-01
 *** RESPONSE FREQ =  4.591       PERIOD=  0.2178      PTS/CYC =  22.    

 *** AVERAGE DISP INCREMENT ACROSS SOURCE INTERFACE. Fluid Solid Interface (FSIN_1)
     AVERAGE SENDING DISPLACEMENT INCREMENT DX =  0.27734E-08
     AVERAGE SENDING DISPLACEMENT INCREMENT DY = -0.23221E-04
     AVERAGE SENDING DISPLACEMENT INCREMENT DZ = -0.12464E-06

   COUPLING ITERATION. . . . . . . . . . . . . . .     2

 *** FORCE SUM ACROSS TARGET INTERFACE . . . . .Fluid Solid Interface (FSIN_1)
     RECEIVING FORCE FX SUM =  0.49433E-03
     RECEIVING FORCE FY SUM =  -3.4062    
     RECEIVING FORCE FZ SUM =   1.6671    

     FORCE CONVERGENCE VALUE  =   1.801      CRITERION=  0.6441E-01
     DISP CONVERGENCE VALUE   =  0.4473E-04  CRITERION=  0.8090E-05
    EQUIL ITER   1 COMPLETED.  NEW TRIANG MATRIX.  MAX DOF INC= -0.4473E-04
     FORCE CONVERGENCE VALUE  =  0.1230      CRITERION=  0.6907E-01
     DISP CONVERGENCE VALUE   =  0.1207E-08  CRITERION=  0.8255E-05 <<< CONVERGED
    EQUIL ITER   2 COMPLETED.  NEW TRIANG MATRIX.  MAX DOF INC=  0.1207E-08
     FORCE CONVERGENCE VALUE  =  0.1568E-07  CRITERION=  0.7048E-01 <<< CONVERGED
    >>> SOLUTION CONVERGED AFTER EQUILIBRIUM ITERATION   2
 *** LOAD STEP     7   SUBSTEP     1  COMPLETED.    CUM ITER =     64
 *** TIME =  0.700000E-01     TIME INC =  0.100000E-01
 *** RESPONSE FREQ =  4.591       PERIOD=  0.2178      PTS/CYC =  22.    

 *** AVERAGE DISP INCREMENT ACROSS SOURCE INTERFACE. Fluid Solid Interface (FSIN_1)
     AVERAGE SENDING DISPLACEMENT INCREMENT DX =  0.28289E-08
     AVERAGE SENDING DISPLACEMENT INCREMENT DY = -0.23278E-04
     AVERAGE SENDING DISPLACEMENT INCREMENT DZ = -0.10846E-06

   COUPLING ITERATION. . . . . . . . . . . . . . .     3

 *** FORCE SUM ACROSS TARGET INTERFACE . . . . .Fluid Solid Interface (FSIN_1)
     RECEIVING FORCE FX SUM =  0.56334E-03
     RECEIVING FORCE FY SUM =  -3.6166    
     RECEIVING FORCE FZ SUM =   1.7110    

     FORCE CONVERGENCE VALUE  =   1.906      CRITERION=  0.6514E-01
     DISP CONVERGENCE VALUE   =  0.4513E-04  CRITERION=  0.8111E-05
    EQUIL ITER   1 COMPLETED.  NEW TRIANG MATRIX.  MAX DOF INC= -0.4513E-04
     FORCE CONVERGENCE VALUE  =  0.1255      CRITERION=  0.6995E-01
     DISP CONVERGENCE VALUE   =  0.1235E-08  CRITERION=  0.8277E-05 <<< CONVERGED
    EQUIL ITER   2 COMPLETED.  NEW TRIANG MATRIX.  MAX DOF INC=  0.1235E-08
     FORCE CONVERGENCE VALUE  =  0.1597E-07  CRITERION=  0.7137E-01 <<< CONVERGED
    >>> SOLUTION CONVERGED AFTER EQUILIBRIUM ITERATION   2
 *** LOAD STEP     7   SUBSTEP     1  COMPLETED.    CUM ITER =     66
 *** TIME =  0.700000E-01     TIME INC =  0.100000E-01
 *** RESPONSE FREQ =  4.591       PERIOD=  0.2178      PTS/CYC =  22.    

 *** AVERAGE DISP INCREMENT ACROSS SOURCE INTERFACE. Fluid Solid Interface (FSIN_1)
     AVERAGE SENDING DISPLACEMENT INCREMENT DX =  0.29135E-08
     AVERAGE SENDING DISPLACEMENT INCREMENT DY = -0.23512E-04
     AVERAGE SENDING DISPLACEMENT INCREMENT DZ = -0.84812E-07

   COUPLING ITERATION. . . . . . . . . . . . . . .     4

 *** FORCE SUM ACROSS TARGET INTERFACE . . . . .Fluid Solid Interface (FSIN_1)
     RECEIVING FORCE FX SUM =  0.59907E-03
     RECEIVING FORCE FY SUM =  -3.6019    
     RECEIVING FORCE FZ SUM =   1.7467    

     FORCE CONVERGENCE VALUE  =   2.006      CRITERION=  0.6586E-01
     DISP CONVERGENCE VALUE   =  0.4509E-04  CRITERION=  0.8111E-05
    EQUIL ITER   1 COMPLETED.  NEW TRIANG MATRIX.  MAX DOF INC= -0.4509E-04
     FORCE CONVERGENCE VALUE  =  0.1252      CRITERION=  0.7064E-01
     DISP CONVERGENCE VALUE   =  0.1235E-08  CRITERION=  0.8277E-05 <<< CONVERGED
    EQUIL ITER   2 COMPLETED.  NEW TRIANG MATRIX.  MAX DOF INC=  0.1235E-08
     FORCE CONVERGENCE VALUE  =  0.1596E-07  CRITERION=  0.7208E-01 <<< CONVERGED
    >>> SOLUTION CONVERGED AFTER EQUILIBRIUM ITERATION   2
 *** LOAD STEP     7   SUBSTEP     1  COMPLETED.    CUM ITER =     68
 *** TIME =  0.700000E-01     TIME INC =  0.100000E-01
 *** RESPONSE FREQ =  4.591       PERIOD=  0.2178      PTS/CYC =  22.    

 *** AVERAGE DISP INCREMENT ACROSS SOURCE INTERFACE. Fluid Solid Interface (FSIN_1)
     AVERAGE SENDING DISPLACEMENT INCREMENT DX =  0.29616E-08
     AVERAGE SENDING DISPLACEMENT INCREMENT DY = -0.23495E-04
     AVERAGE SENDING DISPLACEMENT INCREMENT DZ = -0.68405E-07

   COUPLING ITERATION. . . . . . . . . . . . . . .     5

 *** FORCE SUM ACROSS TARGET INTERFACE . . . . .Fluid Solid Interface (FSIN_1)
     RECEIVING FORCE FX SUM =  0.61865E-03
     RECEIVING FORCE FY SUM =  -3.4863    
     RECEIVING FORCE FZ SUM =   1.7783    

     FORCE CONVERGENCE VALUE  =   2.103      CRITERION=  0.6661E-01
     DISP CONVERGENCE VALUE   =  0.4486E-04  CRITERION=  0.8111E-05
    EQUIL ITER   1 COMPLETED.  NEW TRIANG MATRIX.  MAX DOF INC= -0.4486E-04
     FORCE CONVERGENCE VALUE  =  0.1239      CRITERION=  0.7129E-01
     DISP CONVERGENCE VALUE   =  0.1223E-08  CRITERION=  0.8277E-05 <<< CONVERGED
    EQUIL ITER   2 COMPLETED.  NEW TRIANG MATRIX.  MAX DOF INC=  0.1223E-08
     FORCE CONVERGENCE VALUE  =  0.1589E-07  CRITERION=  0.7275E-01 <<< CONVERGED
    >>> SOLUTION CONVERGED AFTER EQUILIBRIUM ITERATION   2
 *** LOAD STEP     7   SUBSTEP     1  COMPLETED.    CUM ITER =     70
 *** TIME =  0.700000E-01     TIME INC =  0.100000E-01
 *** RESPONSE FREQ =  4.591       PERIOD=  0.2178      PTS/CYC =  22.    

 *** AVERAGE DISP INCREMENT ACROSS SOURCE INTERFACE. Fluid Solid Interface (FSIN_1)
     AVERAGE SENDING DISPLACEMENT INCREMENT DX =  0.29922E-08
     AVERAGE SENDING DISPLACEMENT INCREMENT DY = -0.23364E-04
     AVERAGE SENDING DISPLACEMENT INCREMENT DZ = -0.56233E-07

 >>> COUPLING STEP     7 COMPLETED AFTER COUPLING ITERATION     5

 *** ANSYS - ENGINEERING ANALYSIS SYSTEM  RELEASE Release 19.0     19.0     ***
 DISTRIBUTED ANSYS Mechanical Enterprise                       

 00000000  VERSION=WINDOWS x64   23:41:43  APR 01, 2019 CP=     27.453

 MMM01--Transient (F5)                                                         



                   C O U P L I N G   S T E P   O P T I O N S

   STEP NUMBER . . . . . . . . . . . . . . . . . .     8
   COUPLING ITERATION. . . . . . . . . . . . . . .     1
   TIME AT END OF THIS STEP. . . . . . . . . . . . 0.80000E-01
   AUTOMATIC TIME STEPPING . . . . . . . . . . . .    ON
      STARTING TIME STEP SIZE. . . . . . . . . . . 0.10000E-01
      MINIMUM TIME STEP SIZE . . . . . . . . . . . 0.10000E-01
      MAXIMUM TIME STEP SIZE . . . . . . . . . . . 0.10000E-01


 *** FORCE SUM ACROSS TARGET INTERFACE . . . . .Fluid Solid Interface (FSIN_1)
     RECEIVING FORCE FX SUM =  0.62810E-03
     RECEIVING FORCE FY SUM =  -3.3521    
     RECEIVING FORCE FZ SUM =   1.8024    

     FORCE CONVERGENCE VALUE  =   2.416      CRITERION=  0.7045E-01
     DISP CONVERGENCE VALUE   =  0.5990E-04  CRITERION=  0.1114E-04
    EQUIL ITER   1 COMPLETED.  NEW TRIANG MATRIX.  MAX DOF INC= -0.5990E-04
     FORCE CONVERGENCE VALUE  =  0.2009      CRITERION=  0.7559E-01
     DISP CONVERGENCE VALUE   =  0.1910E-08  CRITERION=  0.1137E-04 <<< CONVERGED
    EQUIL ITER   2 COMPLETED.  NEW TRIANG MATRIX.  MAX DOF INC=  0.1910E-08
     FORCE CONVERGENCE VALUE  =  0.2543E-07  CRITERION=  0.7713E-01 <<< CONVERGED
    >>> SOLUTION CONVERGED AFTER EQUILIBRIUM ITERATION   2
 *** LOAD STEP     8   SUBSTEP     1  COMPLETED.    CUM ITER =     72
 *** TIME =  0.800000E-01     TIME INC =  0.100000E-01
 *** RESPONSE FREQ =  2.867       PERIOD=  0.3487      PTS/CYC =  35.    

 *** AVERAGE DISP INCREMENT ACROSS SOURCE INTERFACE. Fluid Solid Interface (FSIN_1)
     AVERAGE SENDING DISPLACEMENT INCREMENT DX =  0.47744E-08
     AVERAGE SENDING DISPLACEMENT INCREMENT DY = -0.33903E-04
     AVERAGE SENDING DISPLACEMENT INCREMENT DZ = -0.69214E-06

   COUPLING ITERATION. . . . . . . . . . . . . . .     2

 *** FORCE SUM ACROSS TARGET INTERFACE . . . . .Fluid Solid Interface (FSIN_1)
     RECEIVING FORCE FX SUM =  0.64787E-03
     RECEIVING FORCE FY SUM =  -3.3100    
     RECEIVING FORCE FZ SUM =   1.7976    

     FORCE CONVERGENCE VALUE  =   2.417      CRITERION=  0.6994E-01
     DISP CONVERGENCE VALUE   =  0.5988E-04  CRITERION=  0.1114E-04
    EQUIL ITER   1 COMPLETED.  NEW TRIANG MATRIX.  MAX DOF INC= -0.5988E-04
     FORCE CONVERGENCE VALUE  =  0.2008      CRITERION=  0.7509E-01
     DISP CONVERGENCE VALUE   =  0.1909E-08  CRITERION=  0.1137E-04 <<< CONVERGED
    EQUIL ITER   2 COMPLETED.  NEW TRIANG MATRIX.  MAX DOF INC=  0.1909E-08
     FORCE CONVERGENCE VALUE  =  0.2502E-07  CRITERION=  0.7662E-01 <<< CONVERGED
    >>> SOLUTION CONVERGED AFTER EQUILIBRIUM ITERATION   2
 *** LOAD STEP     8   SUBSTEP     1  COMPLETED.    CUM ITER =     74
 *** TIME =  0.800000E-01     TIME INC =  0.100000E-01
 *** RESPONSE FREQ =  2.867       PERIOD=  0.3487      PTS/CYC =  35.    

 *** AVERAGE DISP INCREMENT ACROSS SOURCE INTERFACE. Fluid Solid Interface (FSIN_1)
     AVERAGE SENDING DISPLACEMENT INCREMENT DX =  0.47894E-08
     AVERAGE SENDING DISPLACEMENT INCREMENT DY = -0.33852E-04
     AVERAGE SENDING DISPLACEMENT INCREMENT DZ = -0.68462E-06

   COUPLING ITERATION. . . . . . . . . . . . . . .     3

 *** FORCE SUM ACROSS TARGET INTERFACE . . . . .Fluid Solid Interface (FSIN_1)
     RECEIVING FORCE FX SUM =  0.67890E-03
     RECEIVING FORCE FY SUM =  -3.5555    
     RECEIVING FORCE FZ SUM =   1.7382    

     FORCE CONVERGENCE VALUE  =   2.501      CRITERION=  0.6751E-01
     DISP CONVERGENCE VALUE   =  0.6039E-04  CRITERION=  0.1117E-04
    EQUIL ITER   1 COMPLETED.  NEW TRIANG MATRIX.  MAX DOF INC= -0.6039E-04
     FORCE CONVERGENCE VALUE  =  0.2036      CRITERION=  0.7291E-01
     DISP CONVERGENCE VALUE   =  0.1938E-08  CRITERION=  0.1139E-04 <<< CONVERGED
    EQUIL ITER   2 COMPLETED.  NEW TRIANG MATRIX.  MAX DOF INC=  0.1938E-08
     FORCE CONVERGENCE VALUE  =  0.2415E-07  CRITERION=  0.7439E-01 <<< CONVERGED
    >>> SOLUTION CONVERGED AFTER EQUILIBRIUM ITERATION   2
 *** LOAD STEP     8   SUBSTEP     1  COMPLETED.    CUM ITER =     76
 *** TIME =  0.800000E-01     TIME INC =  0.100000E-01
 *** RESPONSE FREQ =  2.867       PERIOD=  0.3487      PTS/CYC =  35.    

 *** AVERAGE DISP INCREMENT ACROSS SOURCE INTERFACE. Fluid Solid Interface (FSIN_1)
     AVERAGE SENDING DISPLACEMENT INCREMENT DX =  0.47933E-08
     AVERAGE SENDING DISPLACEMENT INCREMENT DY = -0.34133E-04
     AVERAGE SENDING DISPLACEMENT INCREMENT DZ = -0.68246E-06

   COUPLING ITERATION. . . . . . . . . . . . . . .     4

 *** FORCE SUM ACROSS TARGET INTERFACE . . . . .Fluid Solid Interface (FSIN_1)
     RECEIVING FORCE FX SUM =  0.68872E-03
     RECEIVING FORCE FY SUM =  -3.5325    
     RECEIVING FORCE FZ SUM =   1.7023    

     FORCE CONVERGENCE VALUE  =   2.608      CRITERION=  0.6602E-01
     DISP CONVERGENCE VALUE   =  0.6037E-04  CRITERION=  0.1117E-04
    EQUIL ITER   1 COMPLETED.  NEW TRIANG MATRIX.  MAX DOF INC= -0.6037E-04
     FORCE CONVERGENCE VALUE  =  0.2036      CRITERION=  0.7145E-01
     DISP CONVERGENCE VALUE   =  0.1937E-08  CRITERION=  0.1139E-04 <<< CONVERGED
    EQUIL ITER   2 COMPLETED.  NEW TRIANG MATRIX.  MAX DOF INC=  0.1937E-08
     FORCE CONVERGENCE VALUE  =  0.2337E-07  CRITERION=  0.7291E-01 <<< CONVERGED
    >>> SOLUTION CONVERGED AFTER EQUILIBRIUM ITERATION   2
 *** LOAD STEP     8   SUBSTEP     1  COMPLETED.    CUM ITER =     78
 *** TIME =  0.800000E-01     TIME INC =  0.100000E-01
 *** RESPONSE FREQ =  2.867       PERIOD=  0.3487      PTS/CYC =  35.    

 *** AVERAGE DISP INCREMENT ACROSS SOURCE INTERFACE. Fluid Solid Interface (FSIN_1)
     AVERAGE SENDING DISPLACEMENT INCREMENT DX =  0.47849E-08
     AVERAGE SENDING DISPLACEMENT INCREMENT DY = -0.34107E-04
     AVERAGE SENDING DISPLACEMENT INCREMENT DZ = -0.67985E-06

   COUPLING ITERATION. . . . . . . . . . . . . . .     5

 *** FORCE SUM ACROSS TARGET INTERFACE . . . . .Fluid Solid Interface (FSIN_1)
     RECEIVING FORCE FX SUM =  0.69280E-03
     RECEIVING FORCE FY SUM =  -3.3989    
     RECEIVING FORCE FZ SUM =   1.6903    

     FORCE CONVERGENCE VALUE  =   2.668      CRITERION=  0.6539E-01
     DISP CONVERGENCE VALUE   =  0.6014E-04  CRITERION=  0.1117E-04
    EQUIL ITER   1 COMPLETED.  NEW TRIANG MATRIX.  MAX DOF INC= -0.6014E-04
     FORCE CONVERGENCE VALUE  =  0.2024      CRITERION=  0.7075E-01
     DISP CONVERGENCE VALUE   =  0.1923E-08  CRITERION=  0.1139E-04 <<< CONVERGED
    EQUIL ITER   2 COMPLETED.  NEW TRIANG MATRIX.  MAX DOF INC=  0.1923E-08
     FORCE CONVERGENCE VALUE  =  0.2284E-07  CRITERION=  0.7219E-01 <<< CONVERGED
    >>> SOLUTION CONVERGED AFTER EQUILIBRIUM ITERATION   2
 *** LOAD STEP     8   SUBSTEP     1  COMPLETED.    CUM ITER =     80
 *** TIME =  0.800000E-01     TIME INC =  0.100000E-01
 *** RESPONSE FREQ =  2.867       PERIOD=  0.3487      PTS/CYC =  35.    

 *** AVERAGE DISP INCREMENT ACROSS SOURCE INTERFACE. Fluid Solid Interface (FSIN_1)
     AVERAGE SENDING DISPLACEMENT INCREMENT DX =  0.47811E-08
     AVERAGE SENDING DISPLACEMENT INCREMENT DY = -0.33954E-04
     AVERAGE SENDING DISPLACEMENT INCREMENT DZ = -0.67544E-06

 >>> COUPLING STEP     8 COMPLETED AFTER COUPLING ITERATION     5

 *** ANSYS - ENGINEERING ANALYSIS SYSTEM  RELEASE Release 19.0     19.0     ***
 DISTRIBUTED ANSYS Mechanical Enterprise                       

 00000000  VERSION=WINDOWS x64   23:41:51  APR 01, 2019 CP=     31.375

 MMM01--Transient (F5)                                                         



                   C O U P L I N G   S T E P   O P T I O N S

   STEP NUMBER . . . . . . . . . . . . . . . . . .     9
   COUPLING ITERATION. . . . . . . . . . . . . . .     1
   TIME AT END OF THIS STEP. . . . . . . . . . . . 0.90000E-01
   AUTOMATIC TIME STEPPING . . . . . . . . . . . .    ON
      STARTING TIME STEP SIZE. . . . . . . . . . . 0.10000E-01
      MINIMUM TIME STEP SIZE . . . . . . . . . . . 0.10000E-01
      MAXIMUM TIME STEP SIZE . . . . . . . . . . . 0.10000E-01


 *** FORCE SUM ACROSS TARGET INTERFACE . . . . .Fluid Solid Interface (FSIN_1)
     RECEIVING FORCE FX SUM =  0.69138E-03
     RECEIVING FORCE FY SUM =  -3.2334    
     RECEIVING FORCE FZ SUM =   1.6876    

     FORCE CONVERGENCE VALUE  =   3.077      CRITERION=  0.6908E-01
     DISP CONVERGENCE VALUE   =  0.7747E-04  CRITERION=  0.1506E-04
    EQUIL ITER   1 COMPLETED.  NEW TRIANG MATRIX.  MAX DOF INC= -0.7747E-04
[...]
     AVERAGE SENDING DISPLACEMENT INCREMENT DY = -0.19386E-04
     AVERAGE SENDING DISPLACEMENT INCREMENT DZ =  0.84837E-06

   COUPLING ITERATION. . . . . . . . . . . . . . .     2

 *** FORCE SUM ACROSS TARGET INTERFACE . . . . .Fluid Solid Interface (FSIN_1)
     RECEIVING FORCE FX SUM = -0.68212E-04
     RECEIVING FORCE FY SUM =  0.66259    
     RECEIVING FORCE FZ SUM = -0.17533    

     FORCE CONVERGENCE VALUE  =   6.715      CRITERION=  0.7047E-01
     DISP CONVERGENCE VALUE   =  0.2199E-03  CRITERION=  0.5382E-03 <<< CONVERGED
    EQUIL ITER   1 COMPLETED.  NEW TRIANG MATRIX.  MAX DOF INC= -0.2199E-03
     FORCE CONVERGENCE VALUE  =   1.888      CRITERION=  0.8601E-01
     DISP CONVERGENCE VALUE   =  0.2404E-07  CRITERION=  0.5492E-03 <<< CONVERGED
    EQUIL ITER   2 COMPLETED.  NEW TRIANG MATRIX.  MAX DOF INC=  0.2404E-07
     FORCE CONVERGENCE VALUE  =  0.2709E-06  CRITERION=  0.8777E-01 <<< CONVERGED
    >>> SOLUTION CONVERGED AFTER EQUILIBRIUM ITERATION   2
 *** LOAD STEP    99   SUBSTEP     1  COMPLETED.    CUM ITER =    556
 *** TIME =  0.990000         TIME INC =  0.100000E-01
 *** RESPONSE FREQ =  1.701       PERIOD=  0.5878      PTS/CYC =  59.    

 *** AVERAGE DISP INCREMENT ACROSS SOURCE INTERFACE. Fluid Solid Interface (FSIN_1)
     AVERAGE SENDING DISPLACEMENT INCREMENT DX =  0.41119E-07
     AVERAGE SENDING DISPLACEMENT INCREMENT DY = -0.19358E-04
     AVERAGE SENDING DISPLACEMENT INCREMENT DZ =  0.84849E-06

 >>> COUPLING STEP    99 COMPLETED AFTER COUPLING ITERATION     2

 *** ANSYS - ENGINEERING ANALYSIS SYSTEM  RELEASE Release 19.0     19.0     ***
 DISTRIBUTED ANSYS Mechanical Enterprise                       

 00000000  VERSION=WINDOWS x64   23:49:28  APR 01, 2019 CP=    234.797

 MMM01--Transient (F5)                                                         



                   C O U P L I N G   S T E P   O P T I O N S

   STEP NUMBER . . . . . . . . . . . . . . . . . .   100
   COUPLING ITERATION. . . . . . . . . . . . . . .     1
   TIME AT END OF THIS STEP. . . . . . . . . . . .  1.0000    
   AUTOMATIC TIME STEPPING . . . . . . . . . . . .    ON
      STARTING TIME STEP SIZE. . . . . . . . . . . 0.10000E-01
      MINIMUM TIME STEP SIZE . . . . . . . . . . . 0.10000E-01
      MAXIMUM TIME STEP SIZE . . . . . . . . . . . 0.10000E-01


 *** FORCE SUM ACROSS TARGET INTERFACE . . . . .Fluid Solid Interface (FSIN_1)
     RECEIVING FORCE FX SUM = -0.68675E-04
     RECEIVING FORCE FY SUM =  0.68072    
     RECEIVING FORCE FZ SUM = -0.17508    

     FORCE CONVERGENCE VALUE  =   6.199      CRITERION=  0.8429E-01
     DISP CONVERGENCE VALUE   =  0.2098E-03  CRITERION=  0.5489E-03 <<< CONVERGED
    EQUIL ITER   1 COMPLETED.  NEW TRIANG MATRIX.  MAX DOF INC= -0.2098E-03
     FORCE CONVERGENCE VALUE  =   1.517      CRITERION=  0.9859E-01
     DISP CONVERGENCE VALUE   =  0.1965E-07  CRITERION=  0.5601E-03 <<< CONVERGED
    EQUIL ITER   2 COMPLETED.  NEW TRIANG MATRIX.  MAX DOF INC=  0.1965E-07
     FORCE CONVERGENCE VALUE  =  0.2204E-06  CRITERION=  0.1006     <<< CONVERGED
    >>> SOLUTION CONVERGED AFTER EQUILIBRIUM ITERATION   2
 *** LOAD STEP   100   SUBSTEP     1  COMPLETED.    CUM ITER =    558
 *** TIME =   1.00000         TIME INC =  0.100000E-01
 *** RESPONSE FREQ =  1.680       PERIOD=  0.5951      PTS/CYC =  60.    

 *** AVERAGE DISP INCREMENT ACROSS SOURCE INTERFACE. Fluid Solid Interface (FSIN_1)
     AVERAGE SENDING DISPLACEMENT INCREMENT DX =  0.44760E-07
     AVERAGE SENDING DISPLACEMENT INCREMENT DY = -0.22548E-04
     AVERAGE SENDING DISPLACEMENT INCREMENT DZ =  0.74466E-06

   COUPLING ITERATION. . . . . . . . . . . . . . .     2

 *** FORCE SUM ACROSS TARGET INTERFACE . . . . .Fluid Solid Interface (FSIN_1)
     RECEIVING FORCE FX SUM = -0.70102E-04
     RECEIVING FORCE FY SUM =  0.70182    
     RECEIVING FORCE FZ SUM = -0.17510    

     FORCE CONVERGENCE VALUE  =   6.199      CRITERION=  0.8429E-01
     DISP CONVERGENCE VALUE   =  0.2098E-03  CRITERION=  0.5489E-03 <<< CONVERGED
    EQUIL ITER   1 COMPLETED.  NEW TRIANG MATRIX.  MAX DOF INC= -0.2098E-03
     FORCE CONVERGENCE VALUE  =   1.517      CRITERION=  0.9861E-01
     DISP CONVERGENCE VALUE   =  0.1965E-07  CRITERION=  0.5601E-03 <<< CONVERGED
    EQUIL ITER   2 COMPLETED.  NEW TRIANG MATRIX.  MAX DOF INC=  0.1965E-07
     FORCE CONVERGENCE VALUE  =  0.2204E-06  CRITERION=  0.1006     <<< CONVERGED
    >>> SOLUTION CONVERGED AFTER EQUILIBRIUM ITERATION   2
 *** LOAD STEP   100   SUBSTEP     1  COMPLETED.    CUM ITER =    560
 *** TIME =   1.00000         TIME INC =  0.100000E-01
 *** RESPONSE FREQ =  1.680       PERIOD=  0.5951      PTS/CYC =  60.    

 *** AVERAGE DISP INCREMENT ACROSS SOURCE INTERFACE. Fluid Solid Interface (FSIN_1)
     AVERAGE SENDING DISPLACEMENT INCREMENT DX =  0.44758E-07
     AVERAGE SENDING DISPLACEMENT INCREMENT DY = -0.22523E-04
     AVERAGE SENDING DISPLACEMENT INCREMENT DZ =  0.74475E-06

 >>> COUPLING STEP   100 COMPLETED AFTER COUPLING ITERATION     2
 *************** Write FE CONNECTORS *********

 WRITE OUT CONSTRAINT EQUATIONS TO FILE= file.ce                                                                                                                                                                                                                                                             
 ****************************************************
 *************** FINISHED SOLVE FOR LS 1 *************

 *GET  _WALLASOL  FROM  ACTI  ITEM=TIME WALL  VALUE=  23.8252778    

 PRINTOUT RESUMED BY /GOP

 *GET  _PCGITER  FROM  ACTI  ITEM=SOLU CGIT  VALUE=  182.000000    

 FINISH SOLUTION PROCESSING


 ***** ROUTINE COMPLETED *****  CP =       236.969



 *** ANSYS - ENGINEERING ANALYSIS SYSTEM  RELEASE Release 19.0     19.0     ***
 DISTRIBUTED ANSYS Mechanical Enterprise                       

 00000000  VERSION=WINDOWS x64   23:49:31  APR 01, 2019 CP=    236.984

 MMM01--Transient (F5)                                                         



          ***** ANSYS RESULTS INTERPRETATION (POST1) *****

 *** NOTE ***                            CP =     236.984   TIME= 23:49:31
 Reading results into the database (SET command) will update the current 
 displacement and force boundary conditions in the database with the     
 values from the results file for that load set.  Note that any          
 subsequent solutions will use these values unless action is taken to    
 either SAVE the current values or not overwrite them (/EXIT,NOSAVE).    

 /INPUT FILE= D:\Data\post.txt  LINE=       0

 *** WARNING ***                         CP =     236.984   TIME= 23:49:31
 /BATCH is not a recognized POST1 command, abbreviation, or macro.       
  This command will be ignored.                                          

 *** WARNING ***                         CP =     236.984   TIME= 23:49:31
 /CONFIG is not a recognized POST1 command, abbreviation, or macro.      
  This command will be ignored.                                          

 *GET  _WALLSTRT  FROM  ACTI  ITEM=TIME WALL  VALUE=  23.8252778    

 PARAMETER _WB_POST_RUN =     1.000000000    
 You have already entered the general postprocessor (POST1).             


 USE LAST SUBSTEP ON RESULT FILE  FOR LOAD CASE 0 

 SET COMMAND GOT LOAD STEP=   100  SUBSTEP=     1  CUMULATIVE ITERATION=   560
   TIME/FREQUENCY=  1.0000    
 TITLE= MMM01--Transient (F5)                                                   

 UPDATE NODE COORDINATES WITH DISPLACEMENT FACTOR=  1.0000    

 EXIT THE ANSYS POST1 DATABASE PROCESSOR


 ***** ROUTINE COMPLETED *****  CP =       237.016



 *** ANSYS - ENGINEERING ANALYSIS SYSTEM  RELEASE Release 19.0     19.0     ***
 DISTRIBUTED ANSYS Mechanical Enterprise                       

 00000000  VERSION=WINDOWS x64   23:49:31  APR 01, 2019 CP=    237.016

 MMM01--Transient (F5)                                                         



          ***** ANSYS ANALYSIS DEFINITION (PREP7) *****

 *** ANSYS GLOBAL STATUS *** 

 TITLE = MMM01--Transient (F5)                                                 
 ANALYSIS TYPE =  TRANSIENT            
 NUMBER OF ELEMENT TYPES =      1
       330 ELEMENTS CURRENTLY SELECTED.  MAX ELEMENT NUMBER =         330
      2570 NODES CURRENTLY SELECTED.     MAX NODE NUMBER =           2570

 WRITE ANSYS DATABASE AS AN ANSYS INPUT FILE: D:\Data\beamt01.cdb                                                                                                                                                                                                                                                 


 ***** ROUTINE COMPLETED *****  CP =       237.234



 *** ANSYS - ENGINEERING ANALYSIS SYSTEM  RELEASE Release 19.0     19.0     ***
 DISTRIBUTED ANSYS Mechanical Enterprise                       

 00000000  VERSION=WINDOWS x64   23:49:31  APR 01, 2019 CP=    237.266

 MMM01--Transient (F5)                                                         




          ***** TIME-HISTORY POSTPROCESSOR (POST26) *****

 ALL POST26 SPECIFICATIONS ARE RESET TO INITIAL DEFAULTS

 *** WARNING ***                         CP =     237.266   TIME= 23:49:31
 MPDATA is not a recognized POST26 command, abbreviation, or macro.      
  This command will be ignored.                                          

 *** WARNING ***                         CP =     237.266   TIME= 23:49:31
 Display device has not yet been specified with /SHOW.  Command ignored. 

 MAXIMUM NUMBER OF VARIABLES=200

 VARIABLE191 IS ITEM= NCMI  COMP=       NAME= NCMI     FROM LOAD SET SUMMARY 

 STORAGE COMPLETE FOR    100 DATA POINTS 

         SUMMARY OF VARIABLES STORED THIS STEP AND EXTREME VALUES
 VARI TYPE    IDENTIFIERS   NAME     MINIMUM    AT TIME     MAXIMUM    AT TIME

 191 SOLU     0 NCMI      NCMI       10.00      0.1000E-001  560.0       1.000     

 VARIABLE 191 IS A FILL FROM    1 TO  100 BY    1
  STARTING WITH  1.000000      AND INCREMENTING BY  1.000000    

 VARIABLE 191  IS THE REAL PART OF
     (  1.0000    ,  0.0000    )  TIMES VARIABLE 191
 RESULT VARIABLE NAME = 191     

 VARIABLE  2  IS AT NODE    1870  ITEM= U    COMP= Y     NAME= UY_2    

 STORAGE COMPLETE FOR    100 DATA POINTS 

         SUMMARY OF VARIABLES STORED THIS STEP AND EXTREME VALUES
 VARI TYPE    IDENTIFIERS   NAME     MINIMUM    AT TIME     MAXIMUM    AT TIME

   2 NSOL  1870 UY        UY_2     -0.3285E-002 0.7800      0.8789E-003 0.3900     

 X VARIABLE=  1

 *** WARNING ***                         CP =     237.297   TIME= 23:49:31
 No new variables defined to store.                                      

 *** ANSYS - ENGINEERING ANALYSIS SYSTEM  RELEASE Release 19.0     19.0     ***
 DISTRIBUTED ANSYS Mechanical Enterprise                       

 00000000  VERSION=WINDOWS x64   23:49:31  APR 01, 2019 CP=    237.297

 MMM01--Transient (F5)                                                         



          ***** ANSYS POST26 VARIABLE LISTING *****


    TIME       1870 UY      
                  UY_2    
   0.10000E-01 -0.453539E-005
   0.20000E-01 -0.128923E-004
   0.30000E-01 -0.153846E-004
   0.40000E-01 -0.107187E-004
   0.50000E-01 -0.747900E-005
   0.60000E-01 -0.147270E-004
   0.70000E-01 -0.393231E-004
   0.80000E-01 -0.842063E-004
   0.90000E-01 -0.145851E-003
   0.10000     -0.217596E-003
   0.11000     -0.297563E-003
   0.12000     -0.388228E-003
   0.13000     -0.490804E-003
   0.14000     -0.606261E-003
   0.15000     -0.735423E-003
   0.16000     -0.871953E-003
   0.17000     -0.100301E-002
   0.18000     -0.111688E-002
   0.19000     -0.120587E-002
   0.20000     -0.126557E-002
   0.21000     -0.129304E-002
   0.22000     -0.128626E-002
   0.23000     -0.124455E-002
   0.24000     -0.116852E-002
   0.25000     -0.106005E-002
   0.26000     -0.921782E-003
   0.27000     -0.756308E-003
   0.28000     -0.569227E-003
   0.29000     -0.369897E-003
   0.30000     -0.167935E-003
   0.31000      0.285705E-004
   0.32000      0.213541E-003
   0.33000      0.382728E-003
   0.34000      0.533163E-003
   0.35000      0.661859E-003
   0.36000      0.764781E-003
   0.37000      0.837409E-003
   0.38000      0.876012E-003
   0.39000      0.878939E-003
   0.40000      0.847145E-003
   0.41000      0.783437E-003
   0.42000      0.691373E-003
   0.43000      0.574778E-003
   0.44000      0.437668E-003
   0.45000      0.284128E-003
   0.46000      0.118152E-003
   0.47000     -0.562588E-004
   0.48000     -0.234695E-003
   0.49000     -0.412176E-003
   0.50000     -0.583632E-003

 *** ANSYS - ENGINEERING ANALYSIS SYSTEM  RELEASE Release 19.0     19.0     ***
 DISTRIBUTED ANSYS Mechanical Enterprise                       

 00000000  VERSION=WINDOWS x64   23:49:31  APR 01, 2019 CP=    237.297

 MMM01--Transient (F5)                                                         



          ***** ANSYS POST26 VARIABLE LISTING *****


    TIME       1870 UY      
                  UY_2    
   0.51000     -0.744797E-003
   0.52000     -0.892986E-003
   0.53000     -0.102735E-002
   0.54000     -0.114857E-002
   0.55000     -0.125814E-002
   0.56000     -0.135775E-002
   0.57000     -0.144902E-002
   0.58000     -0.153358E-002
   0.59000     -0.161347E-002
   0.60000     -0.169130E-002
   0.61000     -0.177002E-002
   0.62000     -0.185253E-002
   0.63000     -0.194115E-002
   0.64000     -0.203731E-002
   0.65000     -0.214137E-002
   0.66000     -0.225259E-002
   0.67000     -0.236932E-002
   0.68000     -0.248942E-002
   0.69000     -0.261054E-002
   0.70000     -0.273027E-002
   0.71000     -0.284600E-002
   0.72000     -0.295475E-002
   0.73000     -0.305315E-002
   0.74000     -0.313765E-002
   0.75000     -0.320501E-002
   0.76000     -0.325274E-002
   0.77000     -0.327945E-002
   0.78000     -0.328493E-002
   0.79000     -0.326992E-002
   0.80000     -0.323592E-002
   0.81000     -0.318499E-002
   0.82000     -0.311968E-002
   0.83000     -0.304304E-002
   0.84000     -0.295854E-002
   0.85000     -0.287009E-002
   0.86000     -0.278180E-002
   0.87000     -0.269759E-002
   0.88000     -0.262086E-002
   0.89000     -0.255439E-002
   0.90000     -0.250033E-002
   0.91000     -0.246002E-002
   0.92000     -0.243406E-002
   0.93000     -0.242237E-002
   0.94000     -0.242434E-002
   0.95000     -0.243886E-002
   0.96000     -0.246437E-002
   0.97000     -0.249883E-002
   0.98000     -0.253978E-002
   0.99000     -0.258457E-002
    1.0000     -0.263064E-002

 Set Encoding of XML File to:ISO-8859-1

 Set Output of XML File to:
     PARM,     ,     ,     ,     ,     ,     ,     ,     ,     ,     ,     ,
         ,     ,     ,     ,     ,     ,     ,

 DATABASE WRITTEN ON FILE  parm.xml                                                                                                                                                                                                                                                            


 ***** ROUTINE COMPLETED *****  CP =       237.297



 PRINTOUT RESUMED BY /GOP

 *GET  _WALLDONE  FROM  ACTI  ITEM=TIME WALL  VALUE=  23.8252778    

 PARAMETER _TOTALTIM =     0.000000000    

 Set Encoding of XML File to:ISO-8859-1

 Set Output of XML File to:
     PARM,     ,     ,     ,     ,     ,     ,     ,     ,     ,     ,     ,
         ,     ,     ,     ,     ,     ,     ,

 DATABASE WRITTEN ON FILE  parm.xml                                                                                                                                                                                                                                                            

 PRINTOUT RESUMED BY /GOP

 *GET  _WALLDONE  FROM  ACTI  ITEM=TIME WALL  VALUE=  23.8252778    

 PARAMETER _PREPTIME =    -524.0000000    

 PARAMETER _SOLVTIME =     524.0000000    

 PARAMETER _POSTTIME =     0.000000000    

 PARAMETER _TOTALTIM =     0.000000000    

 EXIT ANSYS WITHOUT SAVING DATABASE


 NUMBER OF WARNING MESSAGES ENCOUNTERED=          6
 NUMBER OF ERROR   MESSAGES ENCOUNTERED=          0

+--------- D I S T R I B U T E D   A N S Y S   S T A T I S T I C S ------------+

Release: Release 19.0       Build: 19.0       Update: UP20171214   Platform: WINDOWS x64 
Date Run: 04/01/2019   Time: 23:49     Process ID: 8472
Operating System: Windows 10  (Build: 17134)

Processor Model:         Intel(R) Core(TM) i7-3770 CPU @ 3.40GHz

Compiler: Intel(R) FORTRAN Compiler Version 15.0.7  (Build: 20160518)
          Intel(R) C/C++ Compiler Version 15.0.7  (Build: 20160518)
          Intel(R) Math Kernel Library Version 2017.0.2 Product Build 20170126

Number of machines requested            :    1
Total number of cores available         :    8
Number of physical cores available      :    4
Number of processes requested           :    2
Number of threads per process requested :    1
Total number of cores requested         :    2 (Distributed Memory Parallel)               
MPI Type: INTELMPI
MPI Version: Intel(R) MPI Library 2017 Update 3 for Windows* OS


GPU Acceleration: Not Requested

Job Name: file0
Input File: dummy.dat

  Core                Machine Name   Working Directory
 -----------------------------------------------------
     0             DESKTOP-2A0V35D   D:\Data\Research\Publications\SMO\ANSYS files\MMM2\_ProjectScratch\Scr4672
     1             DESKTOP-2A0V35D   D:\Data\Research\Publications\SMO\ANSYS files\MMM2\_ProjectScratch\Scr4672
 
Latency time from master to core     1 =    1.787 microseconds
 
Communication speed from master to core     1 =  3306.78 MB/sec

Total CPU time for main thread                    :      236.9 seconds
Total CPU time summed for all threads             :      237.7 seconds

Elapsed time spent pre-processing model (/PREP7)  :        0.1 seconds
Elapsed time spent solution - preprocessing       :        0.0 seconds
Elapsed time spent computing solution             :      524.2 seconds
Elapsed time spent solution - postprocessing      :        0.3 seconds
Elapsed time spent post-processing model (/POST1) :        0.0 seconds
Elapsed time spent post-processing model (/POST26):        0.0 seconds
 
Equation solver used                              :            PCG (symmetric)
Equation solver computational rate                :     6507.4 Mflops

Maximum total memory used                         :       96.0 MB
Maximum total memory allocated                    :     3648.0 MB
Total physical memory available                   :         16 GB

+------ E N D   D I S T R I B U T E D   A N S Y S   S T A T I S T I C S -------+


 *---------------------------------------------------------------------------*
 |                                                                           |
 |                       DISTRIBUTED ANSYS RUN COMPLETED                     |
 |                                                                           |
 |---------------------------------------------------------------------------|
 |                                                                           |
 | Ansys Release 19.0          Build 19.0         UP20171214     WINDOWS x64 |
 |                                                                           |
 |---------------------------------------------------------------------------|
 |                                                                           |
 | Database Requested(-db)  1024 MB    Scratch Memory Requested      1024 MB |
 | Maximum Database Used       3 MB    Maximum Scratch Memory Used     49 MB |
 |                                                                           |
 |---------------------------------------------------------------------------|
 |                                                                           |
 |        CP Time      (sec) =        237.719       Time  =  23:49:32        |
 |        Elapsed Time (sec) =        527.000       Date  =  04/01/2019      |
 |                                                                           |
 *---------------------------------------------------------------------------*
